
*** ChampSim Multicore Out-of-Order Simulator ***

Warmup Instructions: 10000000
Simulation Instructions: 100000000
Number of CPUs: 1
Off-chip DRAM Size: 4 GiB Channels: 1 Width: 64-bit Data Rate: 3200 MT/s

VirtualMemory physical capacity: 8588881920 num_ppages: 2096895
VirtualMemory page size: 4096 log2_page_size: 12

CPU 0 runs /Users/brandon/Documents/CoursesWi22/CSE240C/Homework2/traces/astar_23B.trace.xz
CPU 0 Bimodal branch predictor
Basic BTB sets: 1024 ways: 8 indirect buffer size: 4096 RAS size: 64
Initialize SRRIP state
Heartbeat CPU 0 instructions: 10000002 cycles: 2670768 heartbeat IPC: 3.74424 cumulative IPC: 3.74424 (Simulation time: 0 hr 0 min 46 sec) 

Warmup complete CPU 0 instructions: 10000002 cycles: 2670768 (Simulation time: 0 hr 0 min 46 sec) 

Heartbeat CPU 0 instructions: 20000003 cycles: 25681471 heartbeat IPC: 0.43458 cumulative IPC: 0.43458 (Simulation time: 0 hr 1 min 17 sec) 
Heartbeat CPU 0 instructions: 30000000 cycles: 50082738 heartbeat IPC: 0.409815 cumulative IPC: 0.421834 (Simulation time: 0 hr 1 min 51 sec) 
Heartbeat CPU 0 instructions: 40000002 cycles: 74628564 heartbeat IPC: 0.407401 cumulative IPC: 0.416911 (Simulation time: 0 hr 2 min 25 sec) 
Heartbeat CPU 0 instructions: 50000002 cycles: 98864931 heartbeat IPC: 0.412603 cumulative IPC: 0.415826 (Simulation time: 0 hr 2 min 58 sec) 
Heartbeat CPU 0 instructions: 60000000 cycles: 123474413 heartbeat IPC: 0.406347 cumulative IPC: 0.413895 (Simulation time: 0 hr 3 min 31 sec) 
Heartbeat CPU 0 instructions: 70000000 cycles: 146546674 heartbeat IPC: 0.433421 cumulative IPC: 0.417026 (Simulation time: 0 hr 4 min 5 sec) 
Heartbeat CPU 0 instructions: 80000000 cycles: 170574335 heartbeat IPC: 0.416187 cumulative IPC: 0.416906 (Simulation time: 0 hr 4 min 40 sec) 
Heartbeat CPU 0 instructions: 90000004 cycles: 194905846 heartbeat IPC: 0.41099 cumulative IPC: 0.416157 (Simulation time: 0 hr 5 min 16 sec) 
Heartbeat CPU 0 instructions: 100000002 cycles: 218271152 heartbeat IPC: 0.427985 cumulative IPC: 0.417439 (Simulation time: 0 hr 5 min 50 sec) 
Heartbeat CPU 0 instructions: 110000003 cycles: 242225130 heartbeat IPC: 0.417467 cumulative IPC: 0.417442 (Simulation time: 0 hr 6 min 23 sec) 
Finished CPU 0 instructions: 100000001 cycles: 239554362 cumulative IPC: 0.417442 (Simulation time: 0 hr 6 min 23 sec) 

ChampSim completed all CPUs

Region of Interest Statistics

CPU 0 cumulative IPC: 0.417442 instructions: 100000001 cycles: 239554362
cpu0_DTLB TOTAL     ACCESS:   24054352  HIT:   21626505  MISS:    2427847
cpu0_DTLB LOAD      ACCESS:   21285654  HIT:   19103758  MISS:    2181896
cpu0_DTLB RFO       ACCESS:    2768698  HIT:    2522747  MISS:     245951
cpu0_DTLB PREFETCH  ACCESS:          0  HIT:          0  MISS:          0
cpu0_DTLB WRITEBACK ACCESS:          0  HIT:          0  MISS:          0
cpu0_DTLB TRANSLATION ACCESS:          0  HIT:          0  MISS:          0
cpu0_DTLB PREFETCH  REQUESTED:          0  ISSUED:          0  USEFUL:          0  USELESS:          0
cpu0_DTLB AVERAGE MISS LATENCY: 10.5703 cycles
cpu0_ITLB TOTAL     ACCESS:   12810469  HIT:   12810459  MISS:         10
cpu0_ITLB LOAD      ACCESS:   12810469  HIT:   12810459  MISS:         10
cpu0_ITLB RFO       ACCESS:          0  HIT:          0  MISS:          0
cpu0_ITLB PREFETCH  ACCESS:          0  HIT:          0  MISS:          0
cpu0_ITLB WRITEBACK ACCESS:          0  HIT:          0  MISS:          0
cpu0_ITLB TRANSLATION ACCESS:          0  HIT:          0  MISS:          0
cpu0_ITLB PREFETCH  REQUESTED:          0  ISSUED:          0  USEFUL:          0  USELESS:          0
cpu0_ITLB AVERAGE MISS LATENCY: 239.6 cycles
cpu0_L1I TOTAL     ACCESS:       4974  HIT:       4873  MISS:        101
cpu0_L1I LOAD      ACCESS:       4974  HIT:       4873  MISS:        101
cpu0_L1I RFO       ACCESS:          0  HIT:          0  MISS:          0
cpu0_L1I PREFETCH  ACCESS:          0  HIT:          0  MISS:          0
cpu0_L1I WRITEBACK ACCESS:          0  HIT:          0  MISS:          0
cpu0_L1I TRANSLATION ACCESS:          0  HIT:          0  MISS:          0
cpu0_L1I PREFETCH  REQUESTED:          0  ISSUED:          0  USEFUL:          0  USELESS:          0
cpu0_L1I AVERAGE MISS LATENCY: 198.347 cycles
cpu0_STLB TOTAL     ACCESS:    2427857  HIT:    2026650  MISS:     401207
cpu0_STLB LOAD      ACCESS:    2181906  HIT:    1847022  MISS:     334884
cpu0_STLB RFO       ACCESS:     245951  HIT:     179628  MISS:      66323
cpu0_STLB PREFETCH  ACCESS:          0  HIT:          0  MISS:          0
cpu0_STLB WRITEBACK ACCESS:          0  HIT:          0  MISS:          0
cpu0_STLB TRANSLATION ACCESS:          0  HIT:          0  MISS:          0
cpu0_STLB PREFETCH  REQUESTED:          0  ISSUED:          0  USEFUL:          0  USELESS:          0
cpu0_STLB AVERAGE MISS LATENCY: 9.44292 cycles
cpu0_L1D TOTAL     ACCESS:   26431081  HIT:   23506586  MISS:    2924495
cpu0_L1D LOAD      ACCESS:   21757349  HIT:   18871922  MISS:    2885427
cpu0_L1D RFO       ACCESS:    4287206  HIT:    4250123  MISS:      37083
cpu0_L1D PREFETCH  ACCESS:          0  HIT:          0  MISS:          0
cpu0_L1D WRITEBACK ACCESS:          0  HIT:          0  MISS:          0
cpu0_L1D TRANSLATION ACCESS:     386526  HIT:     384541  MISS:       1985
cpu0_L1D PREFETCH  REQUESTED:          0  ISSUED:          0  USEFUL:          0  USELESS:          0
cpu0_L1D AVERAGE MISS LATENCY: 33.4589 cycles
cpu0_L2C TOTAL     ACCESS:    3881068  HIT:    2734098  MISS:    1146970
cpu0_L2C LOAD      ACCESS:    2885456  HIT:    1746074  MISS:    1139382
cpu0_L2C RFO       ACCESS:      37083  HIT:      29755  MISS:       7328
cpu0_L2C PREFETCH  ACCESS:          0  HIT:          0  MISS:          0
cpu0_L2C WRITEBACK ACCESS:     956544  HIT:     956467  MISS:         77
cpu0_L2C TRANSLATION ACCESS:       1985  HIT:       1802  MISS:        183
cpu0_L2C PREFETCH  REQUESTED:          0  ISSUED:          0  USEFUL:          0  USELESS:          0
cpu0_L2C AVERAGE MISS LATENCY: 57.2293 cycles
LLC TOTAL     ACCESS:    1560073  HIT:    1288472  MISS:     271601
LLC LOAD      ACCESS:    1139231  HIT:     899767  MISS:     239464
LLC RFO       ACCESS:       7328  HIT:       7003  MISS:        325
LLC PREFETCH  ACCESS:          0  HIT:          0  MISS:          0
LLC WRITEBACK ACCESS:     413331  HIT:     381532  MISS:      31799
LLC TRANSLATION ACCESS:        183  HIT:        170  MISS:         13
LLC PREFETCH  REQUESTED:          0  ISSUED:          0  USEFUL:          0  USELESS:          0
LLC AVERAGE MISS LATENCY: 153.013 cycles
Insertion Distribution: 
	LOAD 79013 0 142735 43503 
	RFO 0 0 379 0 
	PREF 0 0 0 0 
	WRITEBACK 0 0 0 32081 
	 2 0 21 1 
Total Prefetch Downgrades: 0

DRAM Statistics
 CHANNEL 0
 RQ ROW_BUFFER_HIT:        552  ROW_BUFFER_MISS:     239061
 DBUS AVG_CONGESTED_CYCLE:    3.56091
 WQ ROW_BUFFER_HIT:       6695  ROW_BUFFER_MISS:     129816  FULL:          0


CPU 0 Branch Prediction Accuracy: 69.3175% MPKI: 58.5794 Average ROB Occupancy at Mispredict: 5.13551
Branch type MPKI
BRANCH_DIRECT_JUMP: 0.00025
BRANCH_INDIRECT: 0
BRANCH_CONDITIONAL: 58.5789
BRANCH_DIRECT_CALL: 0.00016
BRANCH_INDIRECT_CALL: 0
BRANCH_RETURN: 0.00016

