
*** ChampSim Multicore Out-of-Order Simulator ***

Warmup Instructions: 10000000
Simulation Instructions: 100000000
Number of CPUs: 1
Off-chip DRAM Size: 4 GiB Channels: 1 Width: 64-bit Data Rate: 3200 MT/s

VirtualMemory physical capacity: 8588881920 num_ppages: 2096895
VirtualMemory page size: 4096 log2_page_size: 12

CPU 0 runs /Users/brandon/Documents/CoursesWi22/CSE240C/Homework2/traces/leslie3d_94B.trace.xz
CPU 0 Bimodal branch predictor
Basic BTB sets: 1024 ways: 8 indirect buffer size: 4096 RAS size: 64
Initialize SRRIP state
Heartbeat CPU 0 instructions: 10000002 cycles: 4308705 heartbeat IPC: 2.32088 cumulative IPC: 2.32088 (Simulation time: 0 hr 1 min 26 sec) 

Warmup complete CPU 0 instructions: 10000002 cycles: 4308705 (Simulation time: 0 hr 1 min 26 sec) 

Heartbeat CPU 0 instructions: 20000000 cycles: 24904634 heartbeat IPC: 0.485533 cumulative IPC: 0.485533 (Simulation time: 0 hr 4 min 21 sec) 
Heartbeat CPU 0 instructions: 30000001 cycles: 75975028 heartbeat IPC: 0.195808 cumulative IPC: 0.279071 (Simulation time: 0 hr 11 min 1 sec) 
Heartbeat CPU 0 instructions: 40000001 cycles: 86178700 heartbeat IPC: 0.980039 cumulative IPC: 0.366435 (Simulation time: 0 hr 13 min 5 sec) 
Heartbeat CPU 0 instructions: 50000002 cycles: 96386901 heartbeat IPC: 0.979605 cumulative IPC: 0.434413 (Simulation time: 0 hr 15 min 13 sec) 
Heartbeat CPU 0 instructions: 60000003 cycles: 106563086 heartbeat IPC: 0.982687 cumulative IPC: 0.488977 (Simulation time: 0 hr 17 min 20 sec) 
Heartbeat CPU 0 instructions: 70000001 cycles: 116764305 heartbeat IPC: 0.980275 cumulative IPC: 0.533544 (Simulation time: 0 hr 19 min 27 sec) 
Heartbeat CPU 0 instructions: 80000001 cycles: 130560972 heartbeat IPC: 0.724813 cumulative IPC: 0.554446 (Simulation time: 0 hr 22 min 0 sec) 
Heartbeat CPU 0 instructions: 90000004 cycles: 164286229 heartbeat IPC: 0.296514 cumulative IPC: 0.50007 (Simulation time: 0 hr 27 min 2 sec) 
Heartbeat CPU 0 instructions: 100000001 cycles: 219016407 heartbeat IPC: 0.182714 cumulative IPC: 0.419175 (Simulation time: 0 hr 35 min 3 sec) 
Heartbeat CPU 0 instructions: 110000004 cycles: 235312790 heartbeat IPC: 0.613633 cumulative IPC: 0.432893 (Simulation time: 0 hr 37 min 23 sec) 
Finished CPU 0 instructions: 100000002 cycles: 231004085 cumulative IPC: 0.432893 (Simulation time: 0 hr 37 min 23 sec) 

ChampSim completed all CPUs

Region of Interest Statistics

CPU 0 cumulative IPC: 0.432893 instructions: 100000002 cycles: 231004085
cpu0_DTLB TOTAL     ACCESS:   26710525  HIT:   26597874  MISS:     112651
cpu0_DTLB LOAD      ACCESS:   21457135  HIT:   21361410  MISS:      95725
cpu0_DTLB RFO       ACCESS:    5253390  HIT:    5236464  MISS:      16926
cpu0_DTLB PREFETCH  ACCESS:          0  HIT:          0  MISS:          0
cpu0_DTLB WRITEBACK ACCESS:          0  HIT:          0  MISS:          0
cpu0_DTLB TRANSLATION ACCESS:          0  HIT:          0  MISS:          0
cpu0_DTLB PREFETCH  REQUESTED:          0  ISSUED:          0  USEFUL:          0  USELESS:          0
cpu0_DTLB AVERAGE MISS LATENCY: 103.887 cycles
cpu0_ITLB TOTAL     ACCESS:    3132692  HIT:    3132635  MISS:         57
cpu0_ITLB LOAD      ACCESS:    3132692  HIT:    3132635  MISS:         57
cpu0_ITLB RFO       ACCESS:          0  HIT:          0  MISS:          0
cpu0_ITLB PREFETCH  ACCESS:          0  HIT:          0  MISS:          0
cpu0_ITLB WRITEBACK ACCESS:          0  HIT:          0  MISS:          0
cpu0_ITLB TRANSLATION ACCESS:          0  HIT:          0  MISS:          0
cpu0_ITLB PREFETCH  REQUESTED:          0  ISSUED:          0  USEFUL:          0  USELESS:          0
cpu0_ITLB AVERAGE MISS LATENCY: 218.912 cycles
cpu0_L1I TOTAL     ACCESS:    1638725  HIT:    1637653  MISS:       1072
cpu0_L1I LOAD      ACCESS:    1638725  HIT:    1637653  MISS:       1072
cpu0_L1I RFO       ACCESS:          0  HIT:          0  MISS:          0
cpu0_L1I PREFETCH  ACCESS:          0  HIT:          0  MISS:          0
cpu0_L1I WRITEBACK ACCESS:          0  HIT:          0  MISS:          0
cpu0_L1I TRANSLATION ACCESS:          0  HIT:          0  MISS:          0
cpu0_L1I PREFETCH  REQUESTED:          0  ISSUED:          0  USEFUL:          0  USELESS:          0
cpu0_L1I AVERAGE MISS LATENCY: 314.151 cycles
cpu0_STLB TOTAL     ACCESS:     112708  HIT:      63012  MISS:      49696
cpu0_STLB LOAD      ACCESS:      95782  HIT:      56437  MISS:      39345
cpu0_STLB RFO       ACCESS:      16926  HIT:       6575  MISS:      10351
cpu0_STLB PREFETCH  ACCESS:          0  HIT:          0  MISS:          0
cpu0_STLB WRITEBACK ACCESS:          0  HIT:          0  MISS:          0
cpu0_STLB TRANSLATION ACCESS:          0  HIT:          0  MISS:          0
cpu0_STLB PREFETCH  REQUESTED:          0  ISSUED:          0  USEFUL:          0  USELESS:          0
cpu0_STLB AVERAGE MISS LATENCY: 215.251 cycles
cpu0_L1D TOTAL     ACCESS:   22225151  HIT:   18189147  MISS:    4036004
cpu0_L1D LOAD      ACCESS:   13841310  HIT:   10752483  MISS:    3088827
cpu0_L1D RFO       ACCESS:    8341528  HIT:    7399267  MISS:     942261
cpu0_L1D PREFETCH  ACCESS:          0  HIT:          0  MISS:          0
cpu0_L1D WRITEBACK ACCESS:          0  HIT:          0  MISS:          0
cpu0_L1D TRANSLATION ACCESS:      42313  HIT:      37397  MISS:       4916
cpu0_L1D PREFETCH  REQUESTED:          0  ISSUED:          0  USEFUL:          0  USELESS:          0
cpu0_L1D AVERAGE MISS LATENCY: 610.794 cycles
cpu0_L2C TOTAL     ACCESS:    5249463  HIT:    2252626  MISS:    2996837
cpu0_L2C LOAD      ACCESS:    3089895  HIT:     790137  MISS:    2299758
cpu0_L2C RFO       ACCESS:     942187  HIT:     247312  MISS:     694875
cpu0_L2C PREFETCH  ACCESS:          0  HIT:          0  MISS:          0
cpu0_L2C WRITEBACK ACCESS:    1212465  HIT:    1210524  MISS:       1941
cpu0_L2C TRANSLATION ACCESS:       4916  HIT:       4653  MISS:        263
cpu0_L2C PREFETCH  REQUESTED:          0  ISSUED:          0  USEFUL:          0  USELESS:          0
cpu0_L2C AVERAGE MISS LATENCY: 807.811 cycles
LLC TOTAL     ACCESS:    3925804  HIT:     602881  MISS:    3322923
LLC LOAD      ACCESS:    2299757  HIT:     406858  MISS:    1892899
LLC RFO       ACCESS:     694866  HIT:      36951  MISS:     657915
LLC PREFETCH  ACCESS:          0  HIT:          0  MISS:          0
LLC WRITEBACK ACCESS:     930918  HIT:     158848  MISS:     772070
LLC TRANSLATION ACCESS:        263  HIT:        224  MISS:         39
LLC PREFETCH  REQUESTED:          0  ISSUED:          0  USEFUL:          0  USELESS:          0
LLC AVERAGE MISS LATENCY: 709.559 cycles
Insertion Distribution: 
	LOAD 168518 0 279305 1611070 
	RFO 281 0 68745 591505 
	PREF 0 0 0 0 
	WRITEBACK 0 0 0 790355 
	 0 0 39 19 
Total Prefetch Downgrades: 0

DRAM Statistics
 CHANNEL 0
 RQ ROW_BUFFER_HIT:     171668  ROW_BUFFER_MISS:    2378925
 DBUS AVG_CONGESTED_CYCLE:    3.97286
 WQ ROW_BUFFER_HIT:      53554  ROW_BUFFER_MISS:     805997  FULL:      15057


CPU 0 Branch Prediction Accuracy: 96.9231% MPKI: 1.73686 Average ROB Occupancy at Mispredict: 309.429
Branch type MPKI
BRANCH_DIRECT_JUMP: 0.00082
BRANCH_INDIRECT: 0.00014
BRANCH_CONDITIONAL: 1.73229
BRANCH_DIRECT_CALL: 0.00185
BRANCH_INDIRECT_CALL: 3e-05
BRANCH_RETURN: 0.00173

