
*** ChampSim Multicore Out-of-Order Simulator ***

Warmup Instructions: 10000000
Simulation Instructions: 100000000
Number of CPUs: 1
Off-chip DRAM Size: 4 GiB Channels: 1 Width: 64-bit Data Rate: 3200 MT/s

VirtualMemory physical capacity: 8588881920 num_ppages: 2096895
VirtualMemory page size: 4096 log2_page_size: 12

CPU 0 runs /datasets/cs240c-wi22-a00-public/data/Assignment2/astar_163B.trace.xz
CPU 0 Bimodal branch predictor
Basic BTB sets: 1024 ways: 8 indirect buffer size: 4096 RAS size: 64
Heartbeat CPU 0 instructions: 10000003 cycles: 2500067 heartbeat IPC: 3.99989 cumulative IPC: 3.99989 (Simulation time: 0 hr 0 min 33 sec) 

Warmup complete CPU 0 instructions: 10000003 cycles: 2500067 (Simulation time: 0 hr 0 min 33 sec) 

Heartbeat CPU 0 instructions: 20000001 cycles: 19944458 heartbeat IPC: 0.57325 cumulative IPC: 0.57325 (Simulation time: 0 hr 1 min 21 sec) 
Heartbeat CPU 0 instructions: 30000002 cycles: 35851900 heartbeat IPC: 0.628637 cumulative IPC: 0.599667 (Simulation time: 0 hr 2 min 5 sec) 
Heartbeat CPU 0 instructions: 40000000 cycles: 50442437 heartbeat IPC: 0.685376 cumulative IPC: 0.625751 (Simulation time: 0 hr 2 min 43 sec) 
Heartbeat CPU 0 instructions: 50000001 cycles: 65111793 heartbeat IPC: 0.681693 cumulative IPC: 0.638858 (Simulation time: 0 hr 3 min 22 sec) 
Heartbeat CPU 0 instructions: 60000003 cycles: 79696267 heartbeat IPC: 0.685661 cumulative IPC: 0.6477 (Simulation time: 0 hr 4 min 1 sec) 
Heartbeat CPU 0 instructions: 70000002 cycles: 94341704 heartbeat IPC: 0.682806 cumulative IPC: 0.653298 (Simulation time: 0 hr 4 min 38 sec) 
Heartbeat CPU 0 instructions: 80000000 cycles: 109176594 heartbeat IPC: 0.674086 cumulative IPC: 0.656189 (Simulation time: 0 hr 5 min 16 sec) 
Heartbeat CPU 0 instructions: 90000001 cycles: 123756541 heartbeat IPC: 0.685874 cumulative IPC: 0.659759 (Simulation time: 0 hr 5 min 52 sec) 
Heartbeat CPU 0 instructions: 100000003 cycles: 138506347 heartbeat IPC: 0.677975 cumulative IPC: 0.661734 (Simulation time: 0 hr 6 min 29 sec) 
Heartbeat CPU 0 instructions: 110000000 cycles: 153450285 heartbeat IPC: 0.669167 cumulative IPC: 0.66247 (Simulation time: 0 hr 7 min 4 sec) 
Finished CPU 0 instructions: 100000000 cycles: 150950219 cumulative IPC: 0.66247 (Simulation time: 0 hr 7 min 4 sec) 

ChampSim completed all CPUs

Region of Interest Statistics

CPU 0 cumulative IPC: 0.66247 instructions: 100000000 cycles: 150950219
cpu0_DTLB TOTAL     ACCESS:   21353202  HIT:   21044236  MISS:     308966
cpu0_DTLB LOAD      ACCESS:   16589936  HIT:   16288942  MISS:     300994
cpu0_DTLB RFO       ACCESS:    4763266  HIT:    4755294  MISS:       7972
cpu0_DTLB PREFETCH  ACCESS:          0  HIT:          0  MISS:          0
cpu0_DTLB WRITEBACK ACCESS:          0  HIT:          0  MISS:          0
cpu0_DTLB TRANSLATION ACCESS:          0  HIT:          0  MISS:          0
cpu0_DTLB PREFETCH  REQUESTED:          0  ISSUED:          0  USEFUL:          0  USELESS:          0
cpu0_DTLB AVERAGE MISS LATENCY: 10.2736 cycles
cpu0_ITLB TOTAL     ACCESS:   11989000  HIT:   11988993  MISS:          7
cpu0_ITLB LOAD      ACCESS:   11989000  HIT:   11988993  MISS:          7
cpu0_ITLB RFO       ACCESS:          0  HIT:          0  MISS:          0
cpu0_ITLB PREFETCH  ACCESS:          0  HIT:          0  MISS:          0
cpu0_ITLB WRITEBACK ACCESS:          0  HIT:          0  MISS:          0
cpu0_ITLB TRANSLATION ACCESS:          0  HIT:          0  MISS:          0
cpu0_ITLB PREFETCH  REQUESTED:          0  ISSUED:          0  USEFUL:          0  USELESS:          0
cpu0_ITLB AVERAGE MISS LATENCY: 221.571 cycles
cpu0_L1I TOTAL     ACCESS:      30401  HIT:      30315  MISS:         86
cpu0_L1I LOAD      ACCESS:      30401  HIT:      30315  MISS:         86
cpu0_L1I RFO       ACCESS:          0  HIT:          0  MISS:          0
cpu0_L1I PREFETCH  ACCESS:          0  HIT:          0  MISS:          0
cpu0_L1I WRITEBACK ACCESS:          0  HIT:          0  MISS:          0
cpu0_L1I TRANSLATION ACCESS:          0  HIT:          0  MISS:          0
cpu0_L1I PREFETCH  REQUESTED:          0  ISSUED:          0  USEFUL:          0  USELESS:          0
cpu0_L1I AVERAGE MISS LATENCY: 242.779 cycles
cpu0_STLB TOTAL     ACCESS:     308973  HIT:     291503  MISS:      17470
cpu0_STLB LOAD      ACCESS:     301001  HIT:     285663  MISS:      15338
cpu0_STLB RFO       ACCESS:       7972  HIT:       5840  MISS:       2132
cpu0_STLB PREFETCH  ACCESS:          0  HIT:          0  MISS:          0
cpu0_STLB WRITEBACK ACCESS:          0  HIT:          0  MISS:          0
cpu0_STLB TRANSLATION ACCESS:          0  HIT:          0  MISS:          0
cpu0_STLB PREFETCH  REQUESTED:          0  ISSUED:          0  USEFUL:          0  USELESS:          0
cpu0_STLB AVERAGE MISS LATENCY: 22.4793 cycles
cpu0_L1D TOTAL     ACCESS:   27157014  HIT:   26742544  MISS:     414470
cpu0_L1D LOAD      ACCESS:   16928435  HIT:   16595025  MISS:     333410
cpu0_L1D RFO       ACCESS:   10211165  HIT:   10130366  MISS:      80799
cpu0_L1D PREFETCH  ACCESS:          0  HIT:          0  MISS:          0
cpu0_L1D WRITEBACK ACCESS:          0  HIT:          0  MISS:          0
cpu0_L1D TRANSLATION ACCESS:      17414  HIT:      17153  MISS:        261
cpu0_L1D PREFETCH  REQUESTED:          0  ISSUED:          0  USEFUL:          0  USELESS:          0
cpu0_L1D AVERAGE MISS LATENCY: 57.419 cycles
cpu0_L2C TOTAL     ACCESS:     633432  HIT:     441475  MISS:     191957
cpu0_L2C LOAD      ACCESS:     333423  HIT:     209384  MISS:     124039
cpu0_L2C RFO       ACCESS:      80799  HIT:      12919  MISS:      67880
cpu0_L2C PREFETCH  ACCESS:          0  HIT:          0  MISS:          0
cpu0_L2C WRITEBACK ACCESS:     218949  HIT:     218945  MISS:          4
cpu0_L2C TRANSLATION ACCESS:        261  HIT:        227  MISS:         34
cpu0_L2C PREFETCH  REQUESTED:          0  ISSUED:          0  USEFUL:          0  USELESS:          0
cpu0_L2C AVERAGE MISS LATENCY: 100.334 cycles
LLC TOTAL     ACCESS:     335198  HIT:     234561  MISS:     100637
LLC LOAD      ACCESS:     124038  HIT:      55616  MISS:      68422
LLC RFO       ACCESS:      67880  HIT:      38623  MISS:      29257
LLC PREFETCH  ACCESS:          0  HIT:          0  MISS:          0
LLC WRITEBACK ACCESS:     143246  HIT:     140292  MISS:       2954
LLC TRANSLATION ACCESS:         34  HIT:         30  MISS:          4
LLC PREFETCH  REQUESTED:          0  ISSUED:          0  USEFUL:          0  USELESS:          0
LLC AVERAGE MISS LATENCY: 151.324 cycles

DRAM Statistics
 CHANNEL 0
 RQ ROW_BUFFER_HIT:       8350  ROW_BUFFER_MISS:      89332
 DBUS AVG_CONGESTED_CYCLE:    3.79046
 WQ ROW_BUFFER_HIT:       5901  ROW_BUFFER_MISS:      55055  FULL:          0


CPU 0 Branch Prediction Accuracy: 70.0225% MPKI: 43.9041 Average ROB Occupancy at Mispredict: 12.0929
Branch type MPKI
BRANCH_DIRECT_JUMP: 0.00019
BRANCH_INDIRECT: 0
BRANCH_CONDITIONAL: 43.9037
BRANCH_DIRECT_CALL: 0.00012
BRANCH_INDIRECT_CALL: 0
BRANCH_RETURN: 0.00012

