
*** ChampSim Multicore Out-of-Order Simulator ***

Warmup Instructions: 10000000
Simulation Instructions: 100000000
Number of CPUs: 1
Off-chip DRAM Size: 4 GiB Channels: 1 Width: 64-bit Data Rate: 3200 MT/s

VirtualMemory physical capacity: 8588881920 num_ppages: 2096895
VirtualMemory page size: 4096 log2_page_size: 12

CPU 0 runs /datasets/cs240c-wi22-a00-public/data/Assignment2/calculix_3812B.trace.xz
CPU 0 Bimodal branch predictor
Basic BTB sets: 1024 ways: 8 indirect buffer size: 4096 RAS size: 64
Heartbeat CPU 0 instructions: 10000000 cycles: 2819851 heartbeat IPC: 3.54629 cumulative IPC: 3.54629 (Simulation time: 0 hr 0 min 32 sec) 

Warmup complete CPU 0 instructions: 10000004 cycles: 2819852 (Simulation time: 0 hr 0 min 32 sec) 

Heartbeat CPU 0 instructions: 20000004 cycles: 6546598 heartbeat IPC: 2.68331 cumulative IPC: 2.68331 (Simulation time: 0 hr 1 min 3 sec) 
Heartbeat CPU 0 instructions: 30000001 cycles: 10290314 heartbeat IPC: 2.67114 cumulative IPC: 2.67721 (Simulation time: 0 hr 1 min 33 sec) 
Heartbeat CPU 0 instructions: 40000000 cycles: 13980679 heartbeat IPC: 2.70976 cumulative IPC: 2.68797 (Simulation time: 0 hr 2 min 21 sec) 
Heartbeat CPU 0 instructions: 50000001 cycles: 18199244 heartbeat IPC: 2.37047 cumulative IPC: 2.60088 (Simulation time: 0 hr 3 min 2 sec) 
Heartbeat CPU 0 instructions: 60000000 cycles: 21901692 heartbeat IPC: 2.70092 cumulative IPC: 2.62029 (Simulation time: 0 hr 3 min 33 sec) 
Heartbeat CPU 0 instructions: 70000000 cycles: 25790766 heartbeat IPC: 2.57131 cumulative IPC: 2.612 (Simulation time: 0 hr 4 min 3 sec) 
Heartbeat CPU 0 instructions: 80000001 cycles: 29603759 heartbeat IPC: 2.62261 cumulative IPC: 2.61351 (Simulation time: 0 hr 4 min 47 sec) 
Heartbeat CPU 0 instructions: 90000004 cycles: 33262239 heartbeat IPC: 2.73338 cumulative IPC: 2.62791 (Simulation time: 0 hr 5 min 26 sec) 
Heartbeat CPU 0 instructions: 100000001 cycles: 36805918 heartbeat IPC: 2.82193 cumulative IPC: 2.64814 (Simulation time: 0 hr 5 min 56 sec) 
Heartbeat CPU 0 instructions: 110000002 cycles: 40495027 heartbeat IPC: 2.71068 cumulative IPC: 2.65427 (Simulation time: 0 hr 6 min 26 sec) 
Finished CPU 0 instructions: 100000003 cycles: 37675176 cumulative IPC: 2.65427 (Simulation time: 0 hr 6 min 26 sec) 

ChampSim completed all CPUs

Region of Interest Statistics

CPU 0 cumulative IPC: 2.65427 instructions: 100000003 cycles: 37675176
cpu0_DTLB TOTAL     ACCESS:   14461299  HIT:   14434029  MISS:      27270
cpu0_DTLB LOAD      ACCESS:   12803172  HIT:   12776997  MISS:      26175
cpu0_DTLB RFO       ACCESS:    1658127  HIT:    1657032  MISS:       1095
cpu0_DTLB PREFETCH  ACCESS:          0  HIT:          0  MISS:          0
cpu0_DTLB WRITEBACK ACCESS:          0  HIT:          0  MISS:          0
cpu0_DTLB TRANSLATION ACCESS:          0  HIT:          0  MISS:          0
cpu0_DTLB PREFETCH  REQUESTED:          0  ISSUED:          0  USEFUL:          0  USELESS:          0
cpu0_DTLB AVERAGE MISS LATENCY: 14.948 cycles
cpu0_ITLB TOTAL     ACCESS:    5783907  HIT:    5783879  MISS:         28
cpu0_ITLB LOAD      ACCESS:    5783907  HIT:    5783879  MISS:         28
cpu0_ITLB RFO       ACCESS:          0  HIT:          0  MISS:          0
cpu0_ITLB PREFETCH  ACCESS:          0  HIT:          0  MISS:          0
cpu0_ITLB WRITEBACK ACCESS:          0  HIT:          0  MISS:          0
cpu0_ITLB TRANSLATION ACCESS:          0  HIT:          0  MISS:          0
cpu0_ITLB PREFETCH  REQUESTED:          0  ISSUED:          0  USEFUL:          0  USELESS:          0
cpu0_ITLB AVERAGE MISS LATENCY: 9 cycles
cpu0_L1I TOTAL     ACCESS:     869565  HIT:     868813  MISS:        752
cpu0_L1I LOAD      ACCESS:     869565  HIT:     868813  MISS:        752
cpu0_L1I RFO       ACCESS:          0  HIT:          0  MISS:          0
cpu0_L1I PREFETCH  ACCESS:          0  HIT:          0  MISS:          0
cpu0_L1I WRITEBACK ACCESS:          0  HIT:          0  MISS:          0
cpu0_L1I TRANSLATION ACCESS:          0  HIT:          0  MISS:          0
cpu0_L1I PREFETCH  REQUESTED:          0  ISSUED:          0  USEFUL:          0  USELESS:          0
cpu0_L1I AVERAGE MISS LATENCY: 72.3457 cycles
cpu0_STLB TOTAL     ACCESS:      27298  HIT:      26524  MISS:        774
cpu0_STLB LOAD      ACCESS:      26203  HIT:      25863  MISS:        340
cpu0_STLB RFO       ACCESS:       1095  HIT:        661  MISS:        434
cpu0_STLB PREFETCH  ACCESS:          0  HIT:          0  MISS:          0
cpu0_STLB WRITEBACK ACCESS:          0  HIT:          0  MISS:          0
cpu0_STLB TRANSLATION ACCESS:          0  HIT:          0  MISS:          0
cpu0_STLB PREFETCH  REQUESTED:          0  ISSUED:          0  USEFUL:          0  USELESS:          0
cpu0_STLB AVERAGE MISS LATENCY: 209.492 cycles
cpu0_L1D TOTAL     ACCESS:   16702963  HIT:   15375671  MISS:    1327292
cpu0_L1D LOAD      ACCESS:   11984500  HIT:   10709410  MISS:    1275090
cpu0_L1D RFO       ACCESS:    4717692  HIT:    4665537  MISS:      52155
cpu0_L1D PREFETCH  ACCESS:          0  HIT:          0  MISS:          0
cpu0_L1D WRITEBACK ACCESS:          0  HIT:          0  MISS:          0
cpu0_L1D TRANSLATION ACCESS:        771  HIT:        724  MISS:         47
cpu0_L1D PREFETCH  REQUESTED:          0  ISSUED:          0  USEFUL:          0  USELESS:          0
cpu0_L1D AVERAGE MISS LATENCY: 28.1621 cycles
cpu0_L2C TOTAL     ACCESS:    1837948  HIT:    1545993  MISS:     291955
cpu0_L2C LOAD      ACCESS:    1275831  HIT:    1023136  MISS:     252695
cpu0_L2C RFO       ACCESS:      52155  HIT:      13809  MISS:      38346
cpu0_L2C PREFETCH  ACCESS:          0  HIT:          0  MISS:          0
cpu0_L2C WRITEBACK ACCESS:     509915  HIT:     509017  MISS:        898
cpu0_L2C TRANSLATION ACCESS:         47  HIT:         31  MISS:         16
cpu0_L2C PREFETCH  REQUESTED:          0  ISSUED:          0  USEFUL:          0  USELESS:          0
cpu0_L2C AVERAGE MISS LATENCY: 77.4747 cycles
LLC TOTAL     ACCESS:     430999  HIT:     356020  MISS:      74979
LLC LOAD      ACCESS:     252695  HIT:     206365  MISS:      46330
LLC RFO       ACCESS:      38345  HIT:      10716  MISS:      27629
LLC PREFETCH  ACCESS:          0  HIT:          0  MISS:          0
LLC WRITEBACK ACCESS:     139943  HIT:     138926  MISS:       1017
LLC TRANSLATION ACCESS:         16  HIT:         13  MISS:          3
LLC PREFETCH  REQUESTED:          0  ISSUED:          0  USEFUL:          0  USELESS:          0
LLC AVERAGE MISS LATENCY: 220.153 cycles

DRAM Statistics
 CHANNEL 0
 RQ ROW_BUFFER_HIT:      42150  ROW_BUFFER_MISS:      31802
 DBUS AVG_CONGESTED_CYCLE:    3.95576
 WQ ROW_BUFFER_HIT:       3017  ROW_BUFFER_MISS:      17344  FULL:          0


CPU 0 Branch Prediction Accuracy: 96.6151% MPKI: 1.9742 Average ROB Occupancy at Mispredict: 163.871
Branch type MPKI
BRANCH_DIRECT_JUMP: 0.00017
BRANCH_INDIRECT: 0.00062
BRANCH_CONDITIONAL: 1.97308
BRANCH_DIRECT_CALL: 0.00017
BRANCH_INDIRECT_CALL: 0
BRANCH_RETURN: 0.00016

