
*** ChampSim Multicore Out-of-Order Simulator ***

Warmup Instructions: 10000000
Simulation Instructions: 100000000
Number of CPUs: 1
Off-chip DRAM Size: 4 GiB Channels: 1 Width: 64-bit Data Rate: 3200 MT/s

VirtualMemory physical capacity: 8588881920 num_ppages: 2096895
VirtualMemory page size: 4096 log2_page_size: 12

CPU 0 runs /datasets/cs240c-wi22-a00-public/data/Assignment2/GemsFDTD_109B.trace.xz
CPU 0 Bimodal branch predictor
Basic BTB sets: 1024 ways: 8 indirect buffer size: 4096 RAS size: 64
Heartbeat CPU 0 instructions: 10000002 cycles: 4294004 heartbeat IPC: 2.32883 cumulative IPC: 2.32883 (Simulation time: 0 hr 1 min 5 sec) 

Warmup complete CPU 0 instructions: 10000002 cycles: 4294004 (Simulation time: 0 hr 1 min 5 sec) 

Heartbeat CPU 0 instructions: 20000000 cycles: 36539747 heartbeat IPC: 0.310118 cumulative IPC: 0.310118 (Simulation time: 0 hr 4 min 59 sec) 
Heartbeat CPU 0 instructions: 30000004 cycles: 57658233 heartbeat IPC: 0.473519 cumulative IPC: 0.374783 (Simulation time: 0 hr 7 min 16 sec) 
Heartbeat CPU 0 instructions: 40000004 cycles: 63841512 heartbeat IPC: 1.61726 cumulative IPC: 0.503799 (Simulation time: 0 hr 8 min 13 sec) 
Heartbeat CPU 0 instructions: 50000002 cycles: 84733203 heartbeat IPC: 0.478659 cumulative IPC: 0.49727 (Simulation time: 0 hr 10 min 34 sec) 
Heartbeat CPU 0 instructions: 60000002 cycles: 129611590 heartbeat IPC: 0.222824 cumulative IPC: 0.398986 (Simulation time: 0 hr 15 min 39 sec) 
Heartbeat CPU 0 instructions: 70000004 cycles: 174593903 heartbeat IPC: 0.22231 cumulative IPC: 0.35232 (Simulation time: 0 hr 20 min 40 sec) 
Heartbeat CPU 0 instructions: 80000004 cycles: 219592699 heartbeat IPC: 0.222228 cumulative IPC: 0.32513 (Simulation time: 0 hr 25 min 43 sec) 
Heartbeat CPU 0 instructions: 90000000 cycles: 264703692 heartbeat IPC: 0.221675 cumulative IPC: 0.307208 (Simulation time: 0 hr 30 min 44 sec) 
Heartbeat CPU 0 instructions: 100000003 cycles: 309638530 heartbeat IPC: 0.222545 cumulative IPC: 0.294749 (Simulation time: 0 hr 35 min 36 sec) 
Heartbeat CPU 0 instructions: 110000002 cycles: 354661653 heartbeat IPC: 0.222108 cumulative IPC: 0.285414 (Simulation time: 0 hr 40 min 32 sec) 
Finished CPU 0 instructions: 100000000 cycles: 350367649 cumulative IPC: 0.285414 (Simulation time: 0 hr 40 min 32 sec) 

ChampSim completed all CPUs

Region of Interest Statistics

CPU 0 cumulative IPC: 0.285414 instructions: 100000000 cycles: 350367649
cpu0_DTLB TOTAL     ACCESS:   26571745  HIT:   26372317  MISS:     199428
cpu0_DTLB LOAD      ACCESS:   21141226  HIT:   20943805  MISS:     197421
cpu0_DTLB RFO       ACCESS:    5430519  HIT:    5428512  MISS:       2007
cpu0_DTLB PREFETCH  ACCESS:          0  HIT:          0  MISS:          0
cpu0_DTLB WRITEBACK ACCESS:          0  HIT:          0  MISS:          0
cpu0_DTLB TRANSLATION ACCESS:          0  HIT:          0  MISS:          0
cpu0_DTLB PREFETCH  REQUESTED:          0  ISSUED:          0  USEFUL:          0  USELESS:          0
cpu0_DTLB AVERAGE MISS LATENCY: 443.573 cycles
cpu0_ITLB TOTAL     ACCESS:    2068940  HIT:    2068922  MISS:         18
cpu0_ITLB LOAD      ACCESS:    2068940  HIT:    2068922  MISS:         18
cpu0_ITLB RFO       ACCESS:          0  HIT:          0  MISS:          0
cpu0_ITLB PREFETCH  ACCESS:          0  HIT:          0  MISS:          0
cpu0_ITLB WRITEBACK ACCESS:          0  HIT:          0  MISS:          0
cpu0_ITLB TRANSLATION ACCESS:          0  HIT:          0  MISS:          0
cpu0_ITLB PREFETCH  REQUESTED:          0  ISSUED:          0  USEFUL:          0  USELESS:          0
cpu0_ITLB AVERAGE MISS LATENCY: 246.111 cycles
cpu0_L1I TOTAL     ACCESS:    1723038  HIT:    1722608  MISS:        430
cpu0_L1I LOAD      ACCESS:    1723038  HIT:    1722608  MISS:        430
cpu0_L1I RFO       ACCESS:          0  HIT:          0  MISS:          0
cpu0_L1I PREFETCH  ACCESS:          0  HIT:          0  MISS:          0
cpu0_L1I WRITEBACK ACCESS:          0  HIT:          0  MISS:          0
cpu0_L1I TRANSLATION ACCESS:          0  HIT:          0  MISS:          0
cpu0_L1I PREFETCH  REQUESTED:          0  ISSUED:          0  USEFUL:          0  USELESS:          0
cpu0_L1I AVERAGE MISS LATENCY: 325.563 cycles
cpu0_STLB TOTAL     ACCESS:     199446  HIT:      33985  MISS:     165461
cpu0_STLB LOAD      ACCESS:     197439  HIT:      32672  MISS:     164767
cpu0_STLB RFO       ACCESS:       2007  HIT:       1313  MISS:        694
cpu0_STLB PREFETCH  ACCESS:          0  HIT:          0  MISS:          0
cpu0_STLB WRITEBACK ACCESS:          0  HIT:          0  MISS:          0
cpu0_STLB TRANSLATION ACCESS:          0  HIT:          0  MISS:          0
cpu0_STLB PREFETCH  REQUESTED:          0  ISSUED:          0  USEFUL:          0  USELESS:          0
cpu0_STLB AVERAGE MISS LATENCY: 523.695 cycles
cpu0_L1D TOTAL     ACCESS:   21961809  HIT:   18731647  MISS:    3230162
cpu0_L1D LOAD      ACCESS:   12862071  HIT:    9762208  MISS:    3099863
cpu0_L1D RFO       ACCESS:    9008918  HIT:    8881305  MISS:     127613
cpu0_L1D PREFETCH  ACCESS:          0  HIT:          0  MISS:          0
cpu0_L1D WRITEBACK ACCESS:          0  HIT:          0  MISS:          0
cpu0_L1D TRANSLATION ACCESS:      90820  HIT:      88134  MISS:       2686
cpu0_L1D PREFETCH  REQUESTED:          0  ISSUED:          0  USEFUL:          0  USELESS:          0
cpu0_L1D AVERAGE MISS LATENCY: 930.381 cycles
cpu0_L2C TOTAL     ACCESS:    4595421  HIT:    1423750  MISS:    3171671
cpu0_L2C LOAD      ACCESS:    3100293  HIT:      41310  MISS:    3058983
cpu0_L2C RFO       ACCESS:     127613  HIT:      15218  MISS:     112395
cpu0_L2C PREFETCH  ACCESS:          0  HIT:          0  MISS:          0
cpu0_L2C WRITEBACK ACCESS:    1364829  HIT:    1364732  MISS:         97
cpu0_L2C TRANSLATION ACCESS:       2686  HIT:       2490  MISS:        196
cpu0_L2C PREFETCH  REQUESTED:          0  ISSUED:          0  USEFUL:          0  USELESS:          0
cpu0_L2C AVERAGE MISS LATENCY: 936.358 cycles
LLC TOTAL     ACCESS:    4522783  HIT:    1575411  MISS:    2947372
LLC LOAD      ACCESS:    3058973  HIT:     137544  MISS:    2921429
LLC RFO       ACCESS:     112395  HIT:     100186  MISS:      12209
LLC PREFETCH  ACCESS:          0  HIT:          0  MISS:          0
LLC WRITEBACK ACCESS:    1351219  HIT:    1337625  MISS:      13594
LLC TRANSLATION ACCESS:        196  HIT:         56  MISS:        140
LLC PREFETCH  REQUESTED:          0  ISSUED:          0  USEFUL:          0  USELESS:          0
LLC AVERAGE MISS LATENCY: 985.019 cycles

DRAM Statistics
 CHANNEL 0
 RQ ROW_BUFFER_HIT:      41395  ROW_BUFFER_MISS:    2892365
 DBUS AVG_CONGESTED_CYCLE:    3.99753
 WQ ROW_BUFFER_HIT:      13012  ROW_BUFFER_MISS:    1242692  FULL:          0


CPU 0 Branch Prediction Accuracy: 98.929% MPKI: 0.55515 Average ROB Occupancy at Mispredict: 265.117
Branch type MPKI
BRANCH_DIRECT_JUMP: 0.00045
BRANCH_INDIRECT: 1e-05
BRANCH_CONDITIONAL: 0.5534
BRANCH_DIRECT_CALL: 0.00065
BRANCH_INDIRECT_CALL: 0
BRANCH_RETURN: 0.00064

