
*** ChampSim Multicore Out-of-Order Simulator ***

Warmup Instructions: 10000000
Simulation Instructions: 100000000
Number of CPUs: 1
Off-chip DRAM Size: 4 GiB Channels: 1 Width: 64-bit Data Rate: 3200 MT/s

VirtualMemory physical capacity: 8588881920 num_ppages: 2096895
VirtualMemory page size: 4096 log2_page_size: 12

CPU 0 runs /datasets/cs240c-wi22-a00-public/data/Assignment2/hmmer_397B.trace.xz
CPU 0 Bimodal branch predictor
Basic BTB sets: 1024 ways: 8 indirect buffer size: 4096 RAS size: 64
Heartbeat CPU 0 instructions: 10000000 cycles: 3996187 heartbeat IPC: 2.50239 cumulative IPC: 2.50239 (Simulation time: 0 hr 0 min 58 sec) 

Warmup complete CPU 0 instructions: 10000005 cycles: 3996190 (Simulation time: 0 hr 0 min 58 sec) 

Heartbeat CPU 0 instructions: 20000002 cycles: 9519178 heartbeat IPC: 1.81061 cumulative IPC: 1.81061 (Simulation time: 0 hr 2 min 20 sec) 
Heartbeat CPU 0 instructions: 30000003 cycles: 14475329 heartbeat IPC: 2.01769 cumulative IPC: 1.90855 (Simulation time: 0 hr 3 min 42 sec) 
Heartbeat CPU 0 instructions: 40000003 cycles: 20560993 heartbeat IPC: 1.64321 cumulative IPC: 1.81107 (Simulation time: 0 hr 5 min 6 sec) 
Heartbeat CPU 0 instructions: 50000001 cycles: 26395932 heartbeat IPC: 1.71381 cumulative IPC: 1.78573 (Simulation time: 0 hr 6 min 30 sec) 
Heartbeat CPU 0 instructions: 60000002 cycles: 31761704 heartbeat IPC: 1.86366 cumulative IPC: 1.80079 (Simulation time: 0 hr 7 min 53 sec) 
Heartbeat CPU 0 instructions: 70000004 cycles: 36479672 heartbeat IPC: 2.11956 cumulative IPC: 1.84709 (Simulation time: 0 hr 9 min 14 sec) 
Heartbeat CPU 0 instructions: 80000000 cycles: 40891958 heartbeat IPC: 2.2664 cumulative IPC: 1.89724 (Simulation time: 0 hr 10 min 31 sec) 
Heartbeat CPU 0 instructions: 90000004 cycles: 45247296 heartbeat IPC: 2.29603 cumulative IPC: 1.93934 (Simulation time: 0 hr 11 min 48 sec) 
Heartbeat CPU 0 instructions: 100000003 cycles: 49583078 heartbeat IPC: 2.30639 cumulative IPC: 1.97425 (Simulation time: 0 hr 13 min 3 sec) 
Heartbeat CPU 0 instructions: 110000001 cycles: 53930247 heartbeat IPC: 2.30035 cumulative IPC: 2.00264 (Simulation time: 0 hr 14 min 19 sec) 
Finished CPU 0 instructions: 100000001 cycles: 49934058 cumulative IPC: 2.00264 (Simulation time: 0 hr 14 min 19 sec) 

ChampSim completed all CPUs

Region of Interest Statistics

CPU 0 cumulative IPC: 2.00264 instructions: 100000001 cycles: 49934058
cpu0_DTLB TOTAL     ACCESS:   40468779  HIT:   40460830  MISS:       7949
cpu0_DTLB LOAD      ACCESS:   32304420  HIT:   32301547  MISS:       2873
cpu0_DTLB RFO       ACCESS:    8164359  HIT:    8159283  MISS:       5076
cpu0_DTLB PREFETCH  ACCESS:          0  HIT:          0  MISS:          0
cpu0_DTLB WRITEBACK ACCESS:          0  HIT:          0  MISS:          0
cpu0_DTLB TRANSLATION ACCESS:          0  HIT:          0  MISS:          0
cpu0_DTLB PREFETCH  REQUESTED:          0  ISSUED:          0  USEFUL:          0  USELESS:          0
cpu0_DTLB AVERAGE MISS LATENCY: 25.4374 cycles
cpu0_ITLB TOTAL     ACCESS:     793325  HIT:     793218  MISS:        107
cpu0_ITLB LOAD      ACCESS:     793325  HIT:     793218  MISS:        107
cpu0_ITLB RFO       ACCESS:          0  HIT:          0  MISS:          0
cpu0_ITLB PREFETCH  ACCESS:          0  HIT:          0  MISS:          0
cpu0_ITLB WRITEBACK ACCESS:          0  HIT:          0  MISS:          0
cpu0_ITLB TRANSLATION ACCESS:          0  HIT:          0  MISS:          0
cpu0_ITLB PREFETCH  REQUESTED:          0  ISSUED:          0  USEFUL:          0  USELESS:          0
cpu0_ITLB AVERAGE MISS LATENCY: 83.3551 cycles
cpu0_L1I TOTAL     ACCESS:      64606  HIT:      64270  MISS:        336
cpu0_L1I LOAD      ACCESS:      64606  HIT:      64270  MISS:        336
cpu0_L1I RFO       ACCESS:          0  HIT:          0  MISS:          0
cpu0_L1I PREFETCH  ACCESS:          0  HIT:          0  MISS:          0
cpu0_L1I WRITEBACK ACCESS:          0  HIT:          0  MISS:          0
cpu0_L1I TRANSLATION ACCESS:          0  HIT:          0  MISS:          0
cpu0_L1I PREFETCH  REQUESTED:          0  ISSUED:          0  USEFUL:          0  USELESS:          0
cpu0_L1I AVERAGE MISS LATENCY: 253.461 cycles
cpu0_STLB TOTAL     ACCESS:       8056  HIT:       7276  MISS:        780
cpu0_STLB LOAD      ACCESS:       2980  HIT:       2813  MISS:        167
cpu0_STLB RFO       ACCESS:       5076  HIT:       4463  MISS:        613
cpu0_STLB PREFETCH  ACCESS:          0  HIT:          0  MISS:          0
cpu0_STLB WRITEBACK ACCESS:          0  HIT:          0  MISS:          0
cpu0_STLB TRANSLATION ACCESS:          0  HIT:          0  MISS:          0
cpu0_STLB PREFETCH  REQUESTED:          0  ISSUED:          0  USEFUL:          0  USELESS:          0
cpu0_STLB AVERAGE MISS LATENCY: 177.624 cycles
cpu0_L1D TOTAL     ACCESS:   32401614  HIT:   31935991  MISS:     465623
cpu0_L1D LOAD      ACCESS:   28659526  HIT:   28503069  MISS:     156457
cpu0_L1D RFO       ACCESS:    3741318  HIT:    3432333  MISS:     308985
cpu0_L1D PREFETCH  ACCESS:          0  HIT:          0  MISS:          0
cpu0_L1D WRITEBACK ACCESS:          0  HIT:          0  MISS:          0
cpu0_L1D TRANSLATION ACCESS:        770  HIT:        589  MISS:        181
cpu0_L1D PREFETCH  REQUESTED:          0  ISSUED:          0  USEFUL:          0  USELESS:          0
cpu0_L1D AVERAGE MISS LATENCY: 517.571 cycles
cpu0_L2C TOTAL     ACCESS:     770074  HIT:     482877  MISS:     287197
cpu0_L2C LOAD      ACCESS:     156793  HIT:     142105  MISS:      14688
cpu0_L2C RFO       ACCESS:     308985  HIT:      36530  MISS:     272455
cpu0_L2C PREFETCH  ACCESS:          0  HIT:          0  MISS:          0
cpu0_L2C WRITEBACK ACCESS:     304115  HIT:     304078  MISS:         37
cpu0_L2C TRANSLATION ACCESS:        181  HIT:        164  MISS:         17
cpu0_L2C PREFETCH  REQUESTED:          0  ISSUED:          0  USEFUL:          0  USELESS:          0
cpu0_L2C AVERAGE MISS LATENCY: 821.558 cycles
LLC TOTAL     ACCESS:     555374  HIT:     400039  MISS:     155335
LLC LOAD      ACCESS:      14688  HIT:       9805  MISS:       4883
LLC RFO       ACCESS:     272306  HIT:     127193  MISS:     145113
LLC PREFETCH  ACCESS:          0  HIT:          0  MISS:          0
LLC WRITEBACK ACCESS:     268363  HIT:     263033  MISS:       5330
LLC TRANSLATION ACCESS:         17  HIT:          8  MISS:          9
LLC PREFETCH  REQUESTED:          0  ISSUED:          0  USEFUL:          0  USELESS:          0
LLC AVERAGE MISS LATENCY: 1480.17 cycles

DRAM Statistics
 CHANNEL 0
 RQ ROW_BUFFER_HIT:       1696  ROW_BUFFER_MISS:     148302
 DBUS AVG_CONGESTED_CYCLE:    3.99756
 WQ ROW_BUFFER_HIT:       4131  ROW_BUFFER_MISS:     133839  FULL:          0


CPU 0 Branch Prediction Accuracy: 98.9257% MPKI: 0.41399 Average ROB Occupancy at Mispredict: 250.296
Branch type MPKI
BRANCH_DIRECT_JUMP: 0.00081
BRANCH_INDIRECT: 0.00176
BRANCH_CONDITIONAL: 0.40978
BRANCH_DIRECT_CALL: 0.00081
BRANCH_INDIRECT_CALL: 2e-05
BRANCH_RETURN: 0.00081

