
*** ChampSim Multicore Out-of-Order Simulator ***

Warmup Instructions: 10000000
Simulation Instructions: 100000000
Number of CPUs: 1
Off-chip DRAM Size: 4 GiB Channels: 1 Width: 64-bit Data Rate: 3200 MT/s

VirtualMemory physical capacity: 8588881920 num_ppages: 2096895
VirtualMemory page size: 4096 log2_page_size: 12

CPU 0 runs /datasets/cs240c-wi22-a00-public/data/Assignment2/lbm_94B.trace.xz
CPU 0 Bimodal branch predictor
Basic BTB sets: 1024 ways: 8 indirect buffer size: 4096 RAS size: 64
Heartbeat CPU 0 instructions: 10000001 cycles: 2544825 heartbeat IPC: 3.92954 cumulative IPC: 3.92954 (Simulation time: 0 hr 0 min 30 sec) 

Warmup complete CPU 0 instructions: 10000001 cycles: 2544825 (Simulation time: 0 hr 0 min 30 sec) 

Heartbeat CPU 0 instructions: 20000000 cycles: 43999254 heartbeat IPC: 0.241229 cumulative IPC: 0.241229 (Simulation time: 0 hr 3 min 43 sec) 
Heartbeat CPU 0 instructions: 30000003 cycles: 85247359 heartbeat IPC: 0.242435 cumulative IPC: 0.241831 (Simulation time: 0 hr 6 min 53 sec) 
Heartbeat CPU 0 instructions: 40000000 cycles: 125681310 heartbeat IPC: 0.247317 cumulative IPC: 0.243632 (Simulation time: 0 hr 9 min 54 sec) 
Heartbeat CPU 0 instructions: 50000001 cycles: 164988200 heartbeat IPC: 0.254408 cumulative IPC: 0.24624 (Simulation time: 0 hr 12 min 49 sec) 
Heartbeat CPU 0 instructions: 60000003 cycles: 203225114 heartbeat IPC: 0.261527 cumulative IPC: 0.249153 (Simulation time: 0 hr 15 min 37 sec) 
Heartbeat CPU 0 instructions: 70000001 cycles: 241337562 heartbeat IPC: 0.262381 cumulative IPC: 0.251264 (Simulation time: 0 hr 18 min 25 sec) 
Heartbeat CPU 0 instructions: 80000003 cycles: 279417386 heartbeat IPC: 0.262606 cumulative IPC: 0.252824 (Simulation time: 0 hr 21 min 17 sec) 
Heartbeat CPU 0 instructions: 90000003 cycles: 317502208 heartbeat IPC: 0.262572 cumulative IPC: 0.254003 (Simulation time: 0 hr 24 min 6 sec) 
Heartbeat CPU 0 instructions: 100000001 cycles: 355630370 heartbeat IPC: 0.262273 cumulative IPC: 0.254896 (Simulation time: 0 hr 26 min 58 sec) 
Heartbeat CPU 0 instructions: 110000003 cycles: 393720327 heartbeat IPC: 0.262536 cumulative IPC: 0.25564 (Simulation time: 0 hr 29 min 45 sec) 
Finished CPU 0 instructions: 100000002 cycles: 391175502 cumulative IPC: 0.25564 (Simulation time: 0 hr 29 min 45 sec) 

ChampSim completed all CPUs

Region of Interest Statistics

CPU 0 cumulative IPC: 0.25564 instructions: 100000002 cycles: 391175502
cpu0_DTLB TOTAL     ACCESS:   13216971  HIT:   13169219  MISS:      47752
cpu0_DTLB LOAD      ACCESS:    6762536  HIT:    6750588  MISS:      11948
cpu0_DTLB RFO       ACCESS:    6454435  HIT:    6418631  MISS:      35804
cpu0_DTLB PREFETCH  ACCESS:          0  HIT:          0  MISS:          0
cpu0_DTLB WRITEBACK ACCESS:          0  HIT:          0  MISS:          0
cpu0_DTLB TRANSLATION ACCESS:          0  HIT:          0  MISS:          0
cpu0_DTLB PREFETCH  REQUESTED:          0  ISSUED:          0  USEFUL:          0  USELESS:          0
cpu0_DTLB AVERAGE MISS LATENCY: 270.709 cycles
cpu0_ITLB TOTAL     ACCESS:     123118  HIT:     123118  MISS:          0
cpu0_ITLB LOAD      ACCESS:     123118  HIT:     123118  MISS:          0
cpu0_ITLB RFO       ACCESS:          0  HIT:          0  MISS:          0
cpu0_ITLB PREFETCH  ACCESS:          0  HIT:          0  MISS:          0
cpu0_ITLB WRITEBACK ACCESS:          0  HIT:          0  MISS:          0
cpu0_ITLB TRANSLATION ACCESS:          0  HIT:          0  MISS:          0
cpu0_ITLB PREFETCH  REQUESTED:          0  ISSUED:          0  USEFUL:          0  USELESS:          0
cpu0_ITLB AVERAGE MISS LATENCY: -nan cycles
cpu0_STLB TOTAL     ACCESS:      47752  HIT:          0  MISS:      47752
cpu0_STLB LOAD      ACCESS:      11948  HIT:          0  MISS:      11948
cpu0_STLB RFO       ACCESS:      35804  HIT:          0  MISS:      35804
cpu0_STLB PREFETCH  ACCESS:          0  HIT:          0  MISS:          0
cpu0_STLB WRITEBACK ACCESS:          0  HIT:          0  MISS:          0
cpu0_STLB TRANSLATION ACCESS:          0  HIT:          0  MISS:          0
cpu0_STLB PREFETCH  REQUESTED:          0  ISSUED:          0  USEFUL:          0  USELESS:          0
cpu0_STLB AVERAGE MISS LATENCY: 261.709 cycles
cpu0_L1D TOTAL     ACCESS:   14658668  HIT:    9620140  MISS:    5038528
cpu0_L1D LOAD      ACCESS:    4300476  HIT:    3537004  MISS:     763472
cpu0_L1D RFO       ACCESS:   10310440  HIT:    6035431  MISS:    4275009
cpu0_L1D PREFETCH  ACCESS:          0  HIT:          0  MISS:          0
cpu0_L1D WRITEBACK ACCESS:          0  HIT:          0  MISS:          0
cpu0_L1D TRANSLATION ACCESS:      47752  HIT:      47705  MISS:         47
cpu0_L1D PREFETCH  REQUESTED:          0  ISSUED:          0  USEFUL:          0  USELESS:          0
cpu0_L1D AVERAGE MISS LATENCY: 594.738 cycles
cpu0_L2C TOTAL     ACCESS:    9313535  HIT:    6258414  MISS:    3055121
cpu0_L2C LOAD      ACCESS:     763472  HIT:          1  MISS:     763471
cpu0_L2C RFO       ACCESS:    4275008  HIT:    1983503  MISS:    2291505
cpu0_L2C PREFETCH  ACCESS:          0  HIT:          0  MISS:          0
cpu0_L2C WRITEBACK ACCESS:    4275008  HIT:    4274910  MISS:         98
cpu0_L2C TRANSLATION ACCESS:         47  HIT:          0  MISS:         47
cpu0_L2C PREFETCH  REQUESTED:          0  ISSUED:          0  USEFUL:          0  USELESS:          0
cpu0_L2C AVERAGE MISS LATENCY: 961.227 cycles
LLC TOTAL     ACCESS:    5346804  HIT:    2286375  MISS:    3060429
LLC LOAD      ACCESS:     763471  HIT:          4  MISS:     763467
LLC RFO       ACCESS:    2291504  HIT:       1872  MISS:    2289632
LLC PREFETCH  ACCESS:          0  HIT:          0  MISS:          0
LLC WRITEBACK ACCESS:    2291782  HIT:    2284499  MISS:       7283
LLC TRANSLATION ACCESS:         47  HIT:          0  MISS:         47
LLC PREFETCH  REQUESTED:          0  ISSUED:          0  USEFUL:          0  USELESS:          0
LLC AVERAGE MISS LATENCY: 938.597 cycles

DRAM Statistics
 CHANNEL 0
 RQ ROW_BUFFER_HIT:      37944  ROW_BUFFER_MISS:    3015202
 DBUS AVG_CONGESTED_CYCLE:    3.99795
 WQ ROW_BUFFER_HIT:      44329  ROW_BUFFER_MISS:    2245487  FULL:          0


CPU 0 Branch Prediction Accuracy: 99.132% MPKI: 0.10209 Average ROB Occupancy at Mispredict: 173.648
Branch type MPKI
BRANCH_DIRECT_JUMP: 0
BRANCH_INDIRECT: 0
BRANCH_CONDITIONAL: 0.10209
BRANCH_DIRECT_CALL: 0
BRANCH_INDIRECT_CALL: 0
BRANCH_RETURN: 0

