
*** ChampSim Multicore Out-of-Order Simulator ***

Warmup Instructions: 10000000
Simulation Instructions: 100000000
Number of CPUs: 1
Off-chip DRAM Size: 4 GiB Channels: 1 Width: 64-bit Data Rate: 3200 MT/s

VirtualMemory physical capacity: 8588881920 num_ppages: 2096895
VirtualMemory page size: 4096 log2_page_size: 12

CPU 0 runs /datasets/cs240c-wi22-a00-public/data/Assignment2/leslie3d_94B.trace.xz
CPU 0 Bimodal branch predictor
Basic BTB sets: 1024 ways: 8 indirect buffer size: 4096 RAS size: 64
Heartbeat CPU 0 instructions: 10000002 cycles: 4308687 heartbeat IPC: 2.32089 cumulative IPC: 2.32089 (Simulation time: 0 hr 1 min 10 sec) 

Warmup complete CPU 0 instructions: 10000002 cycles: 4308687 (Simulation time: 0 hr 1 min 10 sec) 

Heartbeat CPU 0 instructions: 20000004 cycles: 24229112 heartbeat IPC: 0.501997 cumulative IPC: 0.501997 (Simulation time: 0 hr 3 min 23 sec) 
Heartbeat CPU 0 instructions: 30000001 cycles: 76811728 heartbeat IPC: 0.190177 cumulative IPC: 0.27585 (Simulation time: 0 hr 8 min 23 sec) 
Heartbeat CPU 0 instructions: 40000001 cycles: 87074997 heartbeat IPC: 0.974348 cumulative IPC: 0.362466 (Simulation time: 0 hr 10 min 5 sec) 
Heartbeat CPU 0 instructions: 50000002 cycles: 97342279 heartbeat IPC: 0.973968 cumulative IPC: 0.429952 (Simulation time: 0 hr 11 min 47 sec) 
Heartbeat CPU 0 instructions: 60000003 cycles: 107551471 heartbeat IPC: 0.97951 cumulative IPC: 0.484295 (Simulation time: 0 hr 13 min 31 sec) 
Heartbeat CPU 0 instructions: 70000001 cycles: 117799727 heartbeat IPC: 0.975776 cumulative IPC: 0.528676 (Simulation time: 0 hr 15 min 13 sec) 
Heartbeat CPU 0 instructions: 80000001 cycles: 131742029 heartbeat IPC: 0.717242 cumulative IPC: 0.549307 (Simulation time: 0 hr 17 min 13 sec) 
Heartbeat CPU 0 instructions: 90000004 cycles: 165616497 heartbeat IPC: 0.295208 cumulative IPC: 0.495946 (Simulation time: 0 hr 20 min 47 sec) 
Heartbeat CPU 0 instructions: 100000001 cycles: 223601017 heartbeat IPC: 0.17246 cumulative IPC: 0.410411 (Simulation time: 0 hr 26 min 54 sec) 
Heartbeat CPU 0 instructions: 110000004 cycles: 240215913 heartbeat IPC: 0.60187 cumulative IPC: 0.423895 (Simulation time: 0 hr 28 min 43 sec) 
Finished CPU 0 instructions: 100000002 cycles: 235907226 cumulative IPC: 0.423895 (Simulation time: 0 hr 28 min 43 sec) 

ChampSim completed all CPUs

Region of Interest Statistics

CPU 0 cumulative IPC: 0.423895 instructions: 100000002 cycles: 235907226
cpu0_DTLB TOTAL     ACCESS:   26696755  HIT:   26584110  MISS:     112645
cpu0_DTLB LOAD      ACCESS:   21437627  HIT:   21341919  MISS:      95708
cpu0_DTLB RFO       ACCESS:    5259128  HIT:    5242191  MISS:      16937
cpu0_DTLB PREFETCH  ACCESS:          0  HIT:          0  MISS:          0
cpu0_DTLB WRITEBACK ACCESS:          0  HIT:          0  MISS:          0
cpu0_DTLB TRANSLATION ACCESS:          0  HIT:          0  MISS:          0
cpu0_DTLB PREFETCH  REQUESTED:          0  ISSUED:          0  USEFUL:          0  USELESS:          0
cpu0_DTLB AVERAGE MISS LATENCY: 117.424 cycles
cpu0_ITLB TOTAL     ACCESS:    3121955  HIT:    3121898  MISS:         57
cpu0_ITLB LOAD      ACCESS:    3121955  HIT:    3121898  MISS:         57
cpu0_ITLB RFO       ACCESS:          0  HIT:          0  MISS:          0
cpu0_ITLB PREFETCH  ACCESS:          0  HIT:          0  MISS:          0
cpu0_ITLB WRITEBACK ACCESS:          0  HIT:          0  MISS:          0
cpu0_ITLB TRANSLATION ACCESS:          0  HIT:          0  MISS:          0
cpu0_ITLB PREFETCH  REQUESTED:          0  ISSUED:          0  USEFUL:          0  USELESS:          0
cpu0_ITLB AVERAGE MISS LATENCY: 240.123 cycles
cpu0_L1I TOTAL     ACCESS:    1636737  HIT:    1635665  MISS:       1072
cpu0_L1I LOAD      ACCESS:    1636737  HIT:    1635665  MISS:       1072
cpu0_L1I RFO       ACCESS:          0  HIT:          0  MISS:          0
cpu0_L1I PREFETCH  ACCESS:          0  HIT:          0  MISS:          0
cpu0_L1I WRITEBACK ACCESS:          0  HIT:          0  MISS:          0
cpu0_L1I TRANSLATION ACCESS:          0  HIT:          0  MISS:          0
cpu0_L1I PREFETCH  REQUESTED:          0  ISSUED:          0  USEFUL:          0  USELESS:          0
cpu0_L1I AVERAGE MISS LATENCY: 297.663 cycles
cpu0_STLB TOTAL     ACCESS:     112702  HIT:      63006  MISS:      49696
cpu0_STLB LOAD      ACCESS:      95765  HIT:      56411  MISS:      39354
cpu0_STLB RFO       ACCESS:      16937  HIT:       6595  MISS:      10342
cpu0_STLB PREFETCH  ACCESS:          0  HIT:          0  MISS:          0
cpu0_STLB WRITEBACK ACCESS:          0  HIT:          0  MISS:          0
cpu0_STLB TRANSLATION ACCESS:          0  HIT:          0  MISS:          0
cpu0_STLB PREFETCH  REQUESTED:          0  ISSUED:          0  USEFUL:          0  USELESS:          0
cpu0_STLB AVERAGE MISS LATENCY: 245.949 cycles
cpu0_L1D TOTAL     ACCESS:   22187245  HIT:   18151175  MISS:    4036070
cpu0_L1D LOAD      ACCESS:   13800192  HIT:   10711109  MISS:    3089083
cpu0_L1D RFO       ACCESS:    8344595  HIT:    7402519  MISS:     942076
cpu0_L1D PREFETCH  ACCESS:          0  HIT:          0  MISS:          0
cpu0_L1D WRITEBACK ACCESS:          0  HIT:          0  MISS:          0
cpu0_L1D TRANSLATION ACCESS:      42458  HIT:      37547  MISS:       4911
cpu0_L1D PREFETCH  REQUESTED:          0  ISSUED:          0  USEFUL:          0  USELESS:          0
cpu0_L1D AVERAGE MISS LATENCY: 629.131 cycles
cpu0_L2C TOTAL     ACCESS:    5248216  HIT:    2251157  MISS:    2997059
cpu0_L2C LOAD      ACCESS:    3090152  HIT:     791481  MISS:    2298671
cpu0_L2C RFO       ACCESS:     941983  HIT:     246168  MISS:     695815
cpu0_L2C PREFETCH  ACCESS:          0  HIT:          0  MISS:          0
cpu0_L2C WRITEBACK ACCESS:    1211170  HIT:    1208879  MISS:       2291
cpu0_L2C TRANSLATION ACCESS:       4911  HIT:       4629  MISS:        282
cpu0_L2C PREFETCH  REQUESTED:          0  ISSUED:          0  USEFUL:          0  USELESS:          0
cpu0_L2C AVERAGE MISS LATENCY: 832.452 cycles
LLC TOTAL     ACCESS:    3926855  HIT:    1323313  MISS:    2603542
LLC LOAD      ACCESS:    2298664  HIT:     366525  MISS:    1932139
LLC RFO       ACCESS:     695805  HIT:      31416  MISS:     664389
LLC PREFETCH  ACCESS:          0  HIT:          0  MISS:          0
LLC WRITEBACK ACCESS:     932104  HIT:     925146  MISS:       6958
LLC TRANSLATION ACCESS:        282  HIT:        226  MISS:         56
LLC PREFETCH  REQUESTED:          0  ISSUED:          0  USEFUL:          0  USELESS:          0
LLC AVERAGE MISS LATENCY: 934.118 cycles

DRAM Statistics
 CHANNEL 0
 RQ ROW_BUFFER_HIT:     168850  ROW_BUFFER_MISS:    2427487
 DBUS AVG_CONGESTED_CYCLE:    3.97223
 WQ ROW_BUFFER_HIT:      45090  ROW_BUFFER_MISS:     827913  FULL:          0


CPU 0 Branch Prediction Accuracy: 96.9231% MPKI: 1.73686 Average ROB Occupancy at Mispredict: 309.008
Branch type MPKI
BRANCH_DIRECT_JUMP: 0.00082
BRANCH_INDIRECT: 0.00014
BRANCH_CONDITIONAL: 1.73229
BRANCH_DIRECT_CALL: 0.00185
BRANCH_INDIRECT_CALL: 3e-05
BRANCH_RETURN: 0.00173

