
*** ChampSim Multicore Out-of-Order Simulator ***

Warmup Instructions: 10000000
Simulation Instructions: 100000000
Number of CPUs: 1
Off-chip DRAM Size: 4 GiB Channels: 1 Width: 64-bit Data Rate: 3200 MT/s

VirtualMemory physical capacity: 8588881920 num_ppages: 2096895
VirtualMemory page size: 4096 log2_page_size: 12

CPU 0 runs /datasets/cs240c-wi22-a00-public/data/Assignment2/milc_360B.trace.xz
CPU 0 Bimodal branch predictor
Basic BTB sets: 1024 ways: 8 indirect buffer size: 4096 RAS size: 64
Heartbeat CPU 0 instructions: 10000001 cycles: 2500103 heartbeat IPC: 3.99984 cumulative IPC: 3.99984 (Simulation time: 0 hr 0 min 33 sec) 

Warmup complete CPU 0 instructions: 10000001 cycles: 2500103 (Simulation time: 0 hr 0 min 33 sec) 

Heartbeat CPU 0 instructions: 20000000 cycles: 19992336 heartbeat IPC: 0.571682 cumulative IPC: 0.571682 (Simulation time: 0 hr 2 min 28 sec) 
Heartbeat CPU 0 instructions: 30000004 cycles: 37466968 heartbeat IPC: 0.572258 cumulative IPC: 0.57197 (Simulation time: 0 hr 4 min 22 sec) 
Heartbeat CPU 0 instructions: 40000001 cycles: 54948086 heartbeat IPC: 0.572046 cumulative IPC: 0.571995 (Simulation time: 0 hr 6 min 14 sec) 
Heartbeat CPU 0 instructions: 50000001 cycles: 75674538 heartbeat IPC: 0.482475 cumulative IPC: 0.546639 (Simulation time: 0 hr 8 min 40 sec) 
Heartbeat CPU 0 instructions: 60000000 cycles: 95444172 heartbeat IPC: 0.505826 cumulative IPC: 0.537958 (Simulation time: 0 hr 10 min 35 sec) 
Heartbeat CPU 0 instructions: 70000000 cycles: 115249833 heartbeat IPC: 0.504906 cumulative IPC: 0.532152 (Simulation time: 0 hr 12 min 31 sec) 
Heartbeat CPU 0 instructions: 80000000 cycles: 132697767 heartbeat IPC: 0.573134 cumulative IPC: 0.537644 (Simulation time: 0 hr 14 min 19 sec) 
Heartbeat CPU 0 instructions: 90000000 cycles: 148751454 heartbeat IPC: 0.62291 cumulative IPC: 0.547004 (Simulation time: 0 hr 16 min 2 sec) 
Heartbeat CPU 0 instructions: 100000002 cycles: 164779969 heartbeat IPC: 0.623888 cumulative IPC: 0.554597 (Simulation time: 0 hr 17 min 41 sec) 
Heartbeat CPU 0 instructions: 110000003 cycles: 180804858 heartbeat IPC: 0.624029 cumulative IPC: 0.560838 (Simulation time: 0 hr 19 min 24 sec) 
Finished CPU 0 instructions: 100000002 cycles: 178304755 cumulative IPC: 0.560838 (Simulation time: 0 hr 19 min 24 sec) 

ChampSim completed all CPUs

Region of Interest Statistics

CPU 0 cumulative IPC: 0.560838 instructions: 100000002 cycles: 178304755
cpu0_DTLB TOTAL     ACCESS:   15509702  HIT:   15294959  MISS:     214743
cpu0_DTLB LOAD      ACCESS:    9060304  HIT:    8847775  MISS:     212529
cpu0_DTLB RFO       ACCESS:    6449398  HIT:    6447184  MISS:       2214
cpu0_DTLB PREFETCH  ACCESS:          0  HIT:          0  MISS:          0
cpu0_DTLB WRITEBACK ACCESS:          0  HIT:          0  MISS:          0
cpu0_DTLB TRANSLATION ACCESS:          0  HIT:          0  MISS:          0
cpu0_DTLB PREFETCH  REQUESTED:          0  ISSUED:          0  USEFUL:          0  USELESS:          0
cpu0_DTLB AVERAGE MISS LATENCY: 83.1035 cycles
cpu0_ITLB TOTAL     ACCESS:    2730847  HIT:    2730844  MISS:          3
cpu0_ITLB LOAD      ACCESS:    2730847  HIT:    2730844  MISS:          3
cpu0_ITLB RFO       ACCESS:          0  HIT:          0  MISS:          0
cpu0_ITLB PREFETCH  ACCESS:          0  HIT:          0  MISS:          0
cpu0_ITLB WRITEBACK ACCESS:          0  HIT:          0  MISS:          0
cpu0_ITLB TRANSLATION ACCESS:          0  HIT:          0  MISS:          0
cpu0_ITLB PREFETCH  REQUESTED:          0  ISSUED:          0  USEFUL:          0  USELESS:          0
cpu0_ITLB AVERAGE MISS LATENCY: 417.333 cycles
cpu0_L1I TOTAL     ACCESS:    6935895  HIT:    6935867  MISS:         28
cpu0_L1I LOAD      ACCESS:    6935895  HIT:    6935867  MISS:         28
cpu0_L1I RFO       ACCESS:          0  HIT:          0  MISS:          0
cpu0_L1I PREFETCH  ACCESS:          0  HIT:          0  MISS:          0
cpu0_L1I WRITEBACK ACCESS:          0  HIT:          0  MISS:          0
cpu0_L1I TRANSLATION ACCESS:          0  HIT:          0  MISS:          0
cpu0_L1I PREFETCH  REQUESTED:          0  ISSUED:          0  USEFUL:          0  USELESS:          0
cpu0_L1I AVERAGE MISS LATENCY: 230.964 cycles
cpu0_STLB TOTAL     ACCESS:     214746  HIT:        123  MISS:     214623
cpu0_STLB LOAD      ACCESS:     212532  HIT:         98  MISS:     212434
cpu0_STLB RFO       ACCESS:       2214  HIT:         25  MISS:       2189
cpu0_STLB PREFETCH  ACCESS:          0  HIT:          0  MISS:          0
cpu0_STLB WRITEBACK ACCESS:          0  HIT:          0  MISS:          0
cpu0_STLB TRANSLATION ACCESS:          0  HIT:          0  MISS:          0
cpu0_STLB PREFETCH  REQUESTED:          0  ISSUED:          0  USEFUL:          0  USELESS:          0
cpu0_STLB AVERAGE MISS LATENCY: 74.1492 cycles
cpu0_L1D TOTAL     ACCESS:   24596184  HIT:   22499793  MISS:    2096391
cpu0_L1D LOAD      ACCESS:    6415997  HIT:    4459999  MISS:    1955998
cpu0_L1D RFO       ACCESS:   17966004  HIT:   17825995  MISS:     140009
cpu0_L1D PREFETCH  ACCESS:          0  HIT:          0  MISS:          0
cpu0_L1D WRITEBACK ACCESS:          0  HIT:          0  MISS:          0
cpu0_L1D TRANSLATION ACCESS:     214183  HIT:     213799  MISS:        384
cpu0_L1D PREFETCH  REQUESTED:          0  ISSUED:          0  USEFUL:          0  USELESS:          0
cpu0_L1D AVERAGE MISS LATENCY: 340.687 cycles
cpu0_L2C TOTAL     ACCESS:    2839086  HIT:     742662  MISS:    2096424
cpu0_L2C LOAD      ACCESS:    1956026  HIT:          0  MISS:    1956026
cpu0_L2C RFO       ACCESS:     140009  HIT:          0  MISS:     140009
cpu0_L2C PREFETCH  ACCESS:          0  HIT:          0  MISS:          0
cpu0_L2C WRITEBACK ACCESS:     742667  HIT:     742660  MISS:          7
cpu0_L2C TRANSLATION ACCESS:        384  HIT:          2  MISS:        382
cpu0_L2C PREFETCH  REQUESTED:          0  ISSUED:          0  USEFUL:          0  USELESS:          0
cpu0_L2C AVERAGE MISS LATENCY: 329.583 cycles
LLC TOTAL     ACCESS:    2839080  HIT:     730260  MISS:    2108820
LLC LOAD      ACCESS:    1956026  HIT:        236  MISS:    1955790
LLC RFO       ACCESS:     140009  HIT:          0  MISS:     140009
LLC PREFETCH  ACCESS:          0  HIT:          0  MISS:          0
LLC WRITEBACK ACCESS:     742663  HIT:     729708  MISS:      12955
LLC TRANSLATION ACCESS:        382  HIT:        316  MISS:         66
LLC PREFETCH  REQUESTED:          0  ISSUED:          0  USEFUL:          0  USELESS:          0
LLC AVERAGE MISS LATENCY: 306.77 cycles

DRAM Statistics
 CHANNEL 0
 RQ ROW_BUFFER_HIT:     347110  ROW_BUFFER_MISS:    1748753
 DBUS AVG_CONGESTED_CYCLE:    3.95038
 WQ ROW_BUFFER_HIT:      41683  ROW_BUFFER_MISS:     700921  FULL:          0


CPU 0 Branch Prediction Accuracy: 99.9991% MPKI: 0.00037 Average ROB Occupancy at Mispredict: 84.7297
Branch type MPKI
BRANCH_DIRECT_JUMP: 4e-05
BRANCH_INDIRECT: 0
BRANCH_CONDITIONAL: 0.00015
BRANCH_DIRECT_CALL: 9e-05
BRANCH_INDIRECT_CALL: 0
BRANCH_RETURN: 9e-05

