
*** ChampSim Multicore Out-of-Order Simulator ***

Warmup Instructions: 10000000
Simulation Instructions: 100000000
Number of CPUs: 1
Off-chip DRAM Size: 4 GiB Channels: 1 Width: 64-bit Data Rate: 3200 MT/s

VirtualMemory physical capacity: 8588881920 num_ppages: 2096895
VirtualMemory page size: 4096 log2_page_size: 12

CPU 0 runs /datasets/cs240c-wi22-a00-public/data/Assignment2/omnetpp_4B.trace.xz
CPU 0 Bimodal branch predictor
Basic BTB sets: 1024 ways: 8 indirect buffer size: 4096 RAS size: 64
Heartbeat CPU 0 instructions: 10000002 cycles: 2526501 heartbeat IPC: 3.95804 cumulative IPC: 3.95804 (Simulation time: 0 hr 0 min 28 sec) 

Warmup complete CPU 0 instructions: 10000002 cycles: 2526501 (Simulation time: 0 hr 0 min 28 sec) 

Heartbeat CPU 0 instructions: 20000000 cycles: 9235775 heartbeat IPC: 1.49047 cumulative IPC: 1.49047 (Simulation time: 0 hr 1 min 7 sec) 
Heartbeat CPU 0 instructions: 30000001 cycles: 16237696 heartbeat IPC: 1.42818 cumulative IPC: 1.45866 (Simulation time: 0 hr 1 min 52 sec) 
Heartbeat CPU 0 instructions: 40000002 cycles: 23269929 heartbeat IPC: 1.42202 cumulative IPC: 1.44624 (Simulation time: 0 hr 2 min 35 sec) 
Heartbeat CPU 0 instructions: 50000000 cycles: 30357857 heartbeat IPC: 1.41085 cumulative IPC: 1.43723 (Simulation time: 0 hr 3 min 17 sec) 
Heartbeat CPU 0 instructions: 60000000 cycles: 37335396 heartbeat IPC: 1.43317 cumulative IPC: 1.43641 (Simulation time: 0 hr 4 min 1 sec) 
Heartbeat CPU 0 instructions: 70000000 cycles: 44205296 heartbeat IPC: 1.45563 cumulative IPC: 1.43958 (Simulation time: 0 hr 4 min 42 sec) 
Heartbeat CPU 0 instructions: 80000000 cycles: 51232998 heartbeat IPC: 1.42294 cumulative IPC: 1.43718 (Simulation time: 0 hr 5 min 25 sec) 
Heartbeat CPU 0 instructions: 90000000 cycles: 58541452 heartbeat IPC: 1.36828 cumulative IPC: 1.42819 (Simulation time: 0 hr 6 min 13 sec) 
Heartbeat CPU 0 instructions: 100000001 cycles: 65174229 heartbeat IPC: 1.50766 cumulative IPC: 1.4366 (Simulation time: 0 hr 6 min 51 sec) 
Heartbeat CPU 0 instructions: 110000002 cycles: 72262231 heartbeat IPC: 1.41083 cumulative IPC: 1.43399 (Simulation time: 0 hr 7 min 34 sec) 
Finished CPU 0 instructions: 100000000 cycles: 69735730 cumulative IPC: 1.43399 (Simulation time: 0 hr 7 min 34 sec) 

ChampSim completed all CPUs

Region of Interest Statistics

CPU 0 cumulative IPC: 1.43399 instructions: 100000000 cycles: 69735730
cpu0_DTLB TOTAL     ACCESS:   11737729  HIT:   10305823  MISS:    1431906
cpu0_DTLB LOAD      ACCESS:    9151202  HIT:    7720857  MISS:    1430345
cpu0_DTLB RFO       ACCESS:    2586527  HIT:    2584966  MISS:       1561
cpu0_DTLB PREFETCH  ACCESS:          0  HIT:          0  MISS:          0
cpu0_DTLB WRITEBACK ACCESS:          0  HIT:          0  MISS:          0
cpu0_DTLB TRANSLATION ACCESS:          0  HIT:          0  MISS:          0
cpu0_DTLB PREFETCH  REQUESTED:          0  ISSUED:          0  USEFUL:          0  USELESS:          0
cpu0_DTLB AVERAGE MISS LATENCY: 17.5969 cycles
cpu0_ITLB TOTAL     ACCESS:    7987532  HIT:    7963365  MISS:      24167
cpu0_ITLB LOAD      ACCESS:    7987532  HIT:    7963365  MISS:      24167
cpu0_ITLB RFO       ACCESS:          0  HIT:          0  MISS:          0
cpu0_ITLB PREFETCH  ACCESS:          0  HIT:          0  MISS:          0
cpu0_ITLB WRITEBACK ACCESS:          0  HIT:          0  MISS:          0
cpu0_ITLB TRANSLATION ACCESS:          0  HIT:          0  MISS:          0
cpu0_ITLB PREFETCH  REQUESTED:          0  ISSUED:          0  USEFUL:          0  USELESS:          0
cpu0_ITLB AVERAGE MISS LATENCY: 10.846 cycles
cpu0_L1I TOTAL     ACCESS:    1939521  HIT:    1876672  MISS:      62849
cpu0_L1I LOAD      ACCESS:    1939521  HIT:    1876672  MISS:      62849
cpu0_L1I RFO       ACCESS:          0  HIT:          0  MISS:          0
cpu0_L1I PREFETCH  ACCESS:          0  HIT:          0  MISS:          0
cpu0_L1I WRITEBACK ACCESS:          0  HIT:          0  MISS:          0
cpu0_L1I TRANSLATION ACCESS:          0  HIT:          0  MISS:          0
cpu0_L1I PREFETCH  REQUESTED:          0  ISSUED:          0  USEFUL:          0  USELESS:          0
cpu0_L1I AVERAGE MISS LATENCY: 45.0064 cycles
cpu0_STLB TOTAL     ACCESS:    1456073  HIT:      23524  MISS:    1432549
cpu0_STLB LOAD      ACCESS:    1454512  HIT:      22780  MISS:    1431732
cpu0_STLB RFO       ACCESS:       1561  HIT:        744  MISS:        817
cpu0_STLB PREFETCH  ACCESS:          0  HIT:          0  MISS:          0
cpu0_STLB WRITEBACK ACCESS:          0  HIT:          0  MISS:          0
cpu0_STLB TRANSLATION ACCESS:          0  HIT:          0  MISS:          0
cpu0_STLB PREFETCH  REQUESTED:          0  ISSUED:          0  USEFUL:          0  USELESS:          0
cpu0_STLB AVERAGE MISS LATENCY: 8.19531 cycles
cpu0_L1D TOTAL     ACCESS:   12694457  HIT:   10204551  MISS:    2489906
cpu0_L1D LOAD      ACCESS:    7377298  HIT:    4926106  MISS:    2451192
cpu0_L1D RFO       ACCESS:    4653532  HIT:    4615810  MISS:      37722
cpu0_L1D PREFETCH  ACCESS:          0  HIT:          0  MISS:          0
cpu0_L1D WRITEBACK ACCESS:          0  HIT:          0  MISS:          0
cpu0_L1D TRANSLATION ACCESS:     663627  HIT:     662635  MISS:        992
cpu0_L1D PREFETCH  REQUESTED:          0  ISSUED:          0  USEFUL:          0  USELESS:          0
cpu0_L1D AVERAGE MISS LATENCY: 70.2995 cycles
cpu0_L2C TOTAL     ACCESS:    2633702  HIT:     114320  MISS:    2519382
cpu0_L2C LOAD      ACCESS:    2514040  HIT:      32379  MISS:    2481661
cpu0_L2C RFO       ACCESS:      37722  HIT:        795  MISS:      36927
cpu0_L2C PREFETCH  ACCESS:          0  HIT:          0  MISS:          0
cpu0_L2C WRITEBACK ACCESS:      80948  HIT:      80948  MISS:          0
cpu0_L2C TRANSLATION ACCESS:        992  HIT:        198  MISS:        794
cpu0_L2C PREFETCH  REQUESTED:          0  ISSUED:          0  USEFUL:          0  USELESS:          0
cpu0_L2C AVERAGE MISS LATENCY: 58.8694 cycles
LLC TOTAL     ACCESS:    2598914  HIT:    2246848  MISS:     352066
LLC LOAD      ACCESS:    2481653  HIT:    2156505  MISS:     325148
LLC RFO       ACCESS:      36927  HIT:      20421  MISS:      16506
LLC PREFETCH  ACCESS:          0  HIT:          0  MISS:          0
LLC WRITEBACK ACCESS:      79540  HIT:      69277  MISS:      10263
LLC TRANSLATION ACCESS:        794  HIT:        645  MISS:        149
LLC PREFETCH  REQUESTED:          0  ISSUED:          0  USEFUL:          0  USELESS:          0
LLC AVERAGE MISS LATENCY: 270.902 cycles

DRAM Statistics
 CHANNEL 0
 RQ ROW_BUFFER_HIT:      25125  ROW_BUFFER_MISS:     315182
 DBUS AVG_CONGESTED_CYCLE:    3.93856
 WQ ROW_BUFFER_HIT:       4803  ROW_BUFFER_MISS:      42952  FULL:          0


CPU 0 Branch Prediction Accuracy: 97.4293% MPKI: 8.26178 Average ROB Occupancy at Mispredict: 56.9171
Branch type MPKI
BRANCH_DIRECT_JUMP: 0.00037
BRANCH_INDIRECT: 0.12485
BRANCH_CONDITIONAL: 8.10493
BRANCH_DIRECT_CALL: 0.00326
BRANCH_INDIRECT_CALL: 0.00558
BRANCH_RETURN: 0.02279

