
*** ChampSim Multicore Out-of-Order Simulator ***

Warmup Instructions: 10000000
Simulation Instructions: 100000000
Number of CPUs: 1
Off-chip DRAM Size: 4 GiB Channels: 1 Width: 64-bit Data Rate: 3200 MT/s

VirtualMemory physical capacity: 8588881920 num_ppages: 2096895
VirtualMemory page size: 4096 log2_page_size: 12

CPU 0 runs /datasets/cs240c-wi22-a00-public/data/Assignment2/xalancbmk_99B.trace.xz
CPU 0 Bimodal branch predictor
Basic BTB sets: 1024 ways: 8 indirect buffer size: 4096 RAS size: 64
Heartbeat CPU 0 instructions: 10000001 cycles: 3059026 heartbeat IPC: 3.26901 cumulative IPC: 3.26901 (Simulation time: 0 hr 0 min 43 sec) 

Warmup complete CPU 0 instructions: 10000001 cycles: 3059026 (Simulation time: 0 hr 0 min 43 sec) 

Heartbeat CPU 0 instructions: 20000003 cycles: 40811566 heartbeat IPC: 0.264883 cumulative IPC: 0.264883 (Simulation time: 0 hr 1 min 56 sec) 
Heartbeat CPU 0 instructions: 30000000 cycles: 81688624 heartbeat IPC: 0.244636 cumulative IPC: 0.254357 (Simulation time: 0 hr 3 min 16 sec) 
Heartbeat CPU 0 instructions: 40000000 cycles: 122566445 heartbeat IPC: 0.244631 cumulative IPC: 0.25103 (Simulation time: 0 hr 4 min 35 sec) 
Heartbeat CPU 0 instructions: 50000002 cycles: 161401029 heartbeat IPC: 0.257502 cumulative IPC: 0.252618 (Simulation time: 0 hr 5 min 52 sec) 
Heartbeat CPU 0 instructions: 60000002 cycles: 202220475 heartbeat IPC: 0.244981 cumulative IPC: 0.251053 (Simulation time: 0 hr 7 min 11 sec) 
Heartbeat CPU 0 instructions: 70000002 cycles: 240684122 heartbeat IPC: 0.259986 cumulative IPC: 0.252499 (Simulation time: 0 hr 8 min 28 sec) 
Heartbeat CPU 0 instructions: 80000001 cycles: 280881212 heartbeat IPC: 0.248774 cumulative IPC: 0.25196 (Simulation time: 0 hr 9 min 45 sec) 
Heartbeat CPU 0 instructions: 90000000 cycles: 320819295 heartbeat IPC: 0.250388 cumulative IPC: 0.251762 (Simulation time: 0 hr 11 min 4 sec) 
Heartbeat CPU 0 instructions: 100000000 cycles: 357981163 heartbeat IPC: 0.269093 cumulative IPC: 0.253577 (Simulation time: 0 hr 12 min 18 sec) 
Heartbeat CPU 0 instructions: 110000001 cycles: 397003345 heartbeat IPC: 0.256265 cumulative IPC: 0.253843 (Simulation time: 0 hr 13 min 34 sec) 
Finished CPU 0 instructions: 100000000 cycles: 393944319 cumulative IPC: 0.253843 (Simulation time: 0 hr 13 min 34 sec) 

ChampSim completed all CPUs

Region of Interest Statistics

CPU 0 cumulative IPC: 0.253843 instructions: 100000000 cycles: 393944319
cpu0_DTLB TOTAL     ACCESS:   22814039  HIT:   22253375  MISS:     560664
cpu0_DTLB LOAD      ACCESS:   21434255  HIT:   20883193  MISS:     551062
cpu0_DTLB RFO       ACCESS:    1379784  HIT:    1370182  MISS:       9602
cpu0_DTLB PREFETCH  ACCESS:          0  HIT:          0  MISS:          0
cpu0_DTLB WRITEBACK ACCESS:          0  HIT:          0  MISS:          0
cpu0_DTLB TRANSLATION ACCESS:          0  HIT:          0  MISS:          0
cpu0_DTLB PREFETCH  REQUESTED:          0  ISSUED:          0  USEFUL:          0  USELESS:          0
cpu0_DTLB AVERAGE MISS LATENCY: 37.0967 cycles
cpu0_ITLB TOTAL     ACCESS:   13331674  HIT:   13304316  MISS:      27358
cpu0_ITLB LOAD      ACCESS:   13331674  HIT:   13304316  MISS:      27358
cpu0_ITLB RFO       ACCESS:          0  HIT:          0  MISS:          0
cpu0_ITLB PREFETCH  ACCESS:          0  HIT:          0  MISS:          0
cpu0_ITLB WRITEBACK ACCESS:          0  HIT:          0  MISS:          0
cpu0_ITLB TRANSLATION ACCESS:          0  HIT:          0  MISS:          0
cpu0_ITLB PREFETCH  REQUESTED:          0  ISSUED:          0  USEFUL:          0  USELESS:          0
cpu0_ITLB AVERAGE MISS LATENCY: 10.917 cycles
cpu0_L1I TOTAL     ACCESS:     671079  HIT:     563920  MISS:     107159
cpu0_L1I LOAD      ACCESS:     671079  HIT:     563920  MISS:     107159
cpu0_L1I RFO       ACCESS:          0  HIT:          0  MISS:          0
cpu0_L1I PREFETCH  ACCESS:          0  HIT:          0  MISS:          0
cpu0_L1I WRITEBACK ACCESS:          0  HIT:          0  MISS:          0
cpu0_L1I TRANSLATION ACCESS:          0  HIT:          0  MISS:          0
cpu0_L1I PREFETCH  REQUESTED:          0  ISSUED:          0  USEFUL:          0  USELESS:          0
cpu0_L1I AVERAGE MISS LATENCY: 60.1946 cycles
cpu0_STLB TOTAL     ACCESS:     588022  HIT:     173009  MISS:     415013
cpu0_STLB LOAD      ACCESS:     578420  HIT:     164971  MISS:     413449
cpu0_STLB RFO       ACCESS:       9602  HIT:       8038  MISS:       1564
cpu0_STLB PREFETCH  ACCESS:          0  HIT:          0  MISS:          0
cpu0_STLB WRITEBACK ACCESS:          0  HIT:          0  MISS:          0
cpu0_STLB TRANSLATION ACCESS:          0  HIT:          0  MISS:          0
cpu0_STLB PREFETCH  REQUESTED:          0  ISSUED:          0  USEFUL:          0  USELESS:          0
cpu0_STLB AVERAGE MISS LATENCY: 38.0078 cycles
cpu0_L1D TOTAL     ACCESS:   17691660  HIT:   14546514  MISS:    3145146
cpu0_L1D LOAD      ACCESS:   15451260  HIT:   12324019  MISS:    3127241
cpu0_L1D RFO       ACCESS:    1870194  HIT:    1858240  MISS:      11954
cpu0_L1D PREFETCH  ACCESS:          0  HIT:          0  MISS:          0
cpu0_L1D WRITEBACK ACCESS:          0  HIT:          0  MISS:          0
cpu0_L1D TRANSLATION ACCESS:     370206  HIT:     364255  MISS:       5951
cpu0_L1D PREFETCH  REQUESTED:          0  ISSUED:          0  USEFUL:          0  USELESS:          0
cpu0_L1D AVERAGE MISS LATENCY: 171.379 cycles
cpu0_L2C TOTAL     ACCESS:    3280057  HIT:     136186  MISS:    3143871
cpu0_L2C LOAD      ACCESS:    3234391  HIT:     101520  MISS:    3132871
cpu0_L2C RFO       ACCESS:      11950  HIT:       2665  MISS:       9285
cpu0_L2C PREFETCH  ACCESS:          0  HIT:          0  MISS:          0
cpu0_L2C WRITEBACK ACCESS:      27765  HIT:      27377  MISS:        388
cpu0_L2C TRANSLATION ACCESS:       5951  HIT:       4624  MISS:       1327
cpu0_L2C PREFETCH  REQUESTED:          0  ISSUED:          0  USEFUL:          0  USELESS:          0
cpu0_L2C AVERAGE MISS LATENCY: 161.967 cycles
LLC TOTAL     ACCESS:    3163848  HIT:     283712  MISS:    2880136
LLC LOAD      ACCESS:    3132871  HIT:     259547  MISS:    2873324
LLC RFO       ACCESS:       9284  HIT:       2950  MISS:       6334
LLC PREFETCH  ACCESS:          0  HIT:          0  MISS:          0
LLC WRITEBACK ACCESS:      20366  HIT:      20163  MISS:        203
LLC TRANSLATION ACCESS:       1327  HIT:       1052  MISS:        275
LLC PREFETCH  REQUESTED:          0  ISSUED:          0  USEFUL:          0  USELESS:          0
LLC AVERAGE MISS LATENCY: 153.878 cycles

DRAM Statistics
 CHANNEL 0
 RQ ROW_BUFFER_HIT:     791809  ROW_BUFFER_MISS:    2088118
 DBUS AVG_CONGESTED_CYCLE:    3.91876
 WQ ROW_BUFFER_HIT:       5296  ROW_BUFFER_MISS:       5864  FULL:          0


CPU 0 Branch Prediction Accuracy: 90.7444% MPKI: 27.9345 Average ROB Occupancy at Mispredict: 19.3163
Branch type MPKI
BRANCH_DIRECT_JUMP: 0.00034
BRANCH_INDIRECT: 0.0087
BRANCH_CONDITIONAL: 27.8577
BRANCH_DIRECT_CALL: 0.00024
BRANCH_INDIRECT_CALL: 0.02508
BRANCH_RETURN: 0.04245

