
*** ChampSim Multicore Out-of-Order Simulator ***

Warmup Instructions: 10000000
Simulation Instructions: 100000000
Number of CPUs: 1
Off-chip DRAM Size: 4 GiB Channels: 1 Width: 64-bit Data Rate: 3200 MT/s

VirtualMemory physical capacity: 8588881920 num_ppages: 2096895
VirtualMemory page size: 4096 log2_page_size: 12

CPU 0 runs /datasets/cs240c-wi22-a00-public/data/Assignment2/hmmer_397B.trace.xz
CPU 0 Bimodal branch predictor
Basic BTB sets: 1024 ways: 8 indirect buffer size: 4096 RAS size: 64
Initialize Hawkeye state
Heartbeat CPU 0 instructions: 10000000 cycles: 3996187 heartbeat IPC: 2.50239 cumulative IPC: 2.50239 (Simulation time: 0 hr 1 min 1 sec) 

Warmup complete CPU 0 instructions: 10000005 cycles: 3996190 (Simulation time: 0 hr 1 min 1 sec) 

Heartbeat CPU 0 instructions: 20000002 cycles: 9349009 heartbeat IPC: 1.86817 cumulative IPC: 1.86817 (Simulation time: 0 hr 2 min 23 sec) 
Heartbeat CPU 0 instructions: 30000003 cycles: 14209186 heartbeat IPC: 2.05754 cumulative IPC: 1.95829 (Simulation time: 0 hr 3 min 37 sec) 
Heartbeat CPU 0 instructions: 40000003 cycles: 19019610 heartbeat IPC: 2.07882 cumulative IPC: 1.99688 (Simulation time: 0 hr 4 min 57 sec) 
Heartbeat CPU 0 instructions: 50000001 cycles: 24263068 heartbeat IPC: 1.90714 cumulative IPC: 1.97366 (Simulation time: 0 hr 6 min 15 sec) 
Heartbeat CPU 0 instructions: 60000002 cycles: 28884099 heartbeat IPC: 2.16402 cumulative IPC: 2.00901 (Simulation time: 0 hr 7 min 33 sec) 
Heartbeat CPU 0 instructions: 70000004 cycles: 33549892 heartbeat IPC: 2.14326 cumulative IPC: 2.0302 (Simulation time: 0 hr 8 min 53 sec) 
Heartbeat CPU 0 instructions: 80000000 cycles: 37912713 heartbeat IPC: 2.29209 cumulative IPC: 2.06389 (Simulation time: 0 hr 10 min 9 sec) 
Heartbeat CPU 0 instructions: 90000004 cycles: 42274211 heartbeat IPC: 2.29279 cumulative IPC: 2.08997 (Simulation time: 0 hr 11 min 26 sec) 
Heartbeat CPU 0 instructions: 100000003 cycles: 46610033 heartbeat IPC: 2.30637 cumulative IPC: 2.11199 (Simulation time: 0 hr 12 min 45 sec) 
Heartbeat CPU 0 instructions: 110000001 cycles: 50957527 heartbeat IPC: 2.30018 cumulative IPC: 2.12941 (Simulation time: 0 hr 14 min 5 sec) 
Finished CPU 0 instructions: 100000001 cycles: 46961338 cumulative IPC: 2.12941 (Simulation time: 0 hr 14 min 5 sec) 

ChampSim completed all CPUs

Region of Interest Statistics

CPU 0 cumulative IPC: 2.12941 instructions: 100000001 cycles: 46961338
cpu0_DTLB TOTAL     ACCESS:   40463038  HIT:   40455090  MISS:       7948
cpu0_DTLB LOAD      ACCESS:   32300375  HIT:   32297508  MISS:       2867
cpu0_DTLB RFO       ACCESS:    8162663  HIT:    8157582  MISS:       5081
cpu0_DTLB PREFETCH  ACCESS:          0  HIT:          0  MISS:          0
cpu0_DTLB WRITEBACK ACCESS:          0  HIT:          0  MISS:          0
cpu0_DTLB TRANSLATION ACCESS:          0  HIT:          0  MISS:          0
cpu0_DTLB PREFETCH  REQUESTED:          0  ISSUED:          0  USEFUL:          0  USELESS:          0
cpu0_DTLB AVERAGE MISS LATENCY: 25.035 cycles
cpu0_ITLB TOTAL     ACCESS:     796611  HIT:     796504  MISS:        107
cpu0_ITLB LOAD      ACCESS:     796611  HIT:     796504  MISS:        107
cpu0_ITLB RFO       ACCESS:          0  HIT:          0  MISS:          0
cpu0_ITLB PREFETCH  ACCESS:          0  HIT:          0  MISS:          0
cpu0_ITLB WRITEBACK ACCESS:          0  HIT:          0  MISS:          0
cpu0_ITLB TRANSLATION ACCESS:          0  HIT:          0  MISS:          0
cpu0_ITLB PREFETCH  REQUESTED:          0  ISSUED:          0  USEFUL:          0  USELESS:          0
cpu0_ITLB AVERAGE MISS LATENCY: 79.2617 cycles
cpu0_L1I TOTAL     ACCESS:      64619  HIT:      64283  MISS:        336
cpu0_L1I LOAD      ACCESS:      64619  HIT:      64283  MISS:        336
cpu0_L1I RFO       ACCESS:          0  HIT:          0  MISS:          0
cpu0_L1I PREFETCH  ACCESS:          0  HIT:          0  MISS:          0
cpu0_L1I WRITEBACK ACCESS:          0  HIT:          0  MISS:          0
cpu0_L1I TRANSLATION ACCESS:          0  HIT:          0  MISS:          0
cpu0_L1I PREFETCH  REQUESTED:          0  ISSUED:          0  USEFUL:          0  USELESS:          0
cpu0_L1I AVERAGE MISS LATENCY: 309.271 cycles
cpu0_STLB TOTAL     ACCESS:       8055  HIT:       7275  MISS:        780
cpu0_STLB LOAD      ACCESS:       2974  HIT:       2807  MISS:        167
cpu0_STLB RFO       ACCESS:       5081  HIT:       4468  MISS:        613
cpu0_STLB PREFETCH  ACCESS:          0  HIT:          0  MISS:          0
cpu0_STLB WRITEBACK ACCESS:          0  HIT:          0  MISS:          0
cpu0_STLB TRANSLATION ACCESS:          0  HIT:          0  MISS:          0
cpu0_STLB PREFETCH  REQUESTED:          0  ISSUED:          0  USEFUL:          0  USELESS:          0
cpu0_STLB AVERAGE MISS LATENCY: 172.938 cycles
cpu0_L1D TOTAL     ACCESS:   32904353  HIT:   32438613  MISS:     465740
cpu0_L1D LOAD      ACCESS:   28661062  HIT:   28504491  MISS:     156571
cpu0_L1D RFO       ACCESS:    4242520  HIT:    3933535  MISS:     308985
cpu0_L1D PREFETCH  ACCESS:          0  HIT:          0  MISS:          0
cpu0_L1D WRITEBACK ACCESS:          0  HIT:          0  MISS:          0
cpu0_L1D TRANSLATION ACCESS:        771  HIT:        587  MISS:        184
cpu0_L1D PREFETCH  REQUESTED:          0  ISSUED:          0  USEFUL:          0  USELESS:          0
cpu0_L1D AVERAGE MISS LATENCY: 319.529 cycles
cpu0_L2C TOTAL     ACCESS:     772954  HIT:     485753  MISS:     287201
cpu0_L2C LOAD      ACCESS:     156907  HIT:     142214  MISS:      14693
cpu0_L2C RFO       ACCESS:     308985  HIT:      36531  MISS:     272454
cpu0_L2C PREFETCH  ACCESS:          0  HIT:          0  MISS:          0
cpu0_L2C WRITEBACK ACCESS:     306878  HIT:     306841  MISS:         37
cpu0_L2C TRANSLATION ACCESS:        184  HIT:        167  MISS:         17
cpu0_L2C PREFETCH  REQUESTED:          0  ISSUED:          0  USEFUL:          0  USELESS:          0
cpu0_L2C AVERAGE MISS LATENCY: 500.662 cycles
LLC TOTAL     ACCESS:     558115  HIT:     353543  MISS:     204572
LLC LOAD      ACCESS:      14693  HIT:      11139  MISS:       3554
LLC RFO       ACCESS:     272306  HIT:     147981  MISS:     124325
LLC PREFETCH  ACCESS:          0  HIT:          0  MISS:          0
LLC WRITEBACK ACCESS:     271099  HIT:     194411  MISS:      76688
LLC TRANSLATION ACCESS:         17  HIT:         12  MISS:          5
LLC PREFETCH  REQUESTED:          0  ISSUED:          0  USEFUL:          0  USELESS:          0
LLC AVERAGE MISS LATENCY: 673.421 cycles
OPTgen accesses: 5079
OPTgen hits: 3120
OPTgen hit rate: 61.4294



DRAM Statistics
 CHANNEL 0
 RQ ROW_BUFFER_HIT:       1839  ROW_BUFFER_MISS:     126040
 DBUS AVG_CONGESTED_CYCLE:    3.99366
 WQ ROW_BUFFER_HIT:       7938  ROW_BUFFER_MISS:     116606  FULL:       3761


CPU 0 Branch Prediction Accuracy: 98.9257% MPKI: 0.41399 Average ROB Occupancy at Mispredict: 249.913
Branch type MPKI
BRANCH_DIRECT_JUMP: 0.00081
BRANCH_INDIRECT: 0.00176
BRANCH_CONDITIONAL: 0.40978
BRANCH_DIRECT_CALL: 0.00081
BRANCH_INDIRECT_CALL: 2e-05
BRANCH_RETURN: 0.00081

