
*** ChampSim Multicore Out-of-Order Simulator ***

Warmup Instructions: 10000000
Simulation Instructions: 100000000
Number of CPUs: 1
Off-chip DRAM Size: 4 GiB Channels: 1 Width: 64-bit Data Rate: 3200 MT/s

VirtualMemory physical capacity: 8588881920 num_ppages: 2096895
VirtualMemory page size: 4096 log2_page_size: 12

CPU 0 runs /datasets/cs240c-wi22-a00-public/data/Assignment2/xalancbmk_748B.trace.xz
CPU 0 Bimodal branch predictor
Basic BTB sets: 1024 ways: 8 indirect buffer size: 4096 RAS size: 64
Initialize Hawkeye state
Heartbeat CPU 0 instructions: 10000002 cycles: 2655103 heartbeat IPC: 3.76633 cumulative IPC: 3.76633 (Simulation time: 0 hr 0 min 35 sec) 

Warmup complete CPU 0 instructions: 10000002 cycles: 2655103 (Simulation time: 0 hr 0 min 35 sec) 

Heartbeat CPU 0 instructions: 20000001 cycles: 11806887 heartbeat IPC: 1.09268 cumulative IPC: 1.09268 (Simulation time: 0 hr 1 min 21 sec) 
Heartbeat CPU 0 instructions: 30000002 cycles: 20719305 heartbeat IPC: 1.12203 cumulative IPC: 1.10716 (Simulation time: 0 hr 2 min 6 sec) 
Heartbeat CPU 0 instructions: 40000002 cycles: 30076180 heartbeat IPC: 1.06873 cumulative IPC: 1.09405 (Simulation time: 0 hr 2 min 53 sec) 
Heartbeat CPU 0 instructions: 50000001 cycles: 38584772 heartbeat IPC: 1.17528 cumulative IPC: 1.11329 (Simulation time: 0 hr 3 min 39 sec) 
Heartbeat CPU 0 instructions: 60000003 cycles: 45747857 heartbeat IPC: 1.39605 cumulative IPC: 1.16029 (Simulation time: 0 hr 4 min 27 sec) 
Heartbeat CPU 0 instructions: 70000000 cycles: 51584139 heartbeat IPC: 1.71342 cumulative IPC: 1.22627 (Simulation time: 0 hr 5 min 13 sec) 
Heartbeat CPU 0 instructions: 80000003 cycles: 61899864 heartbeat IPC: 0.969394 cumulative IPC: 1.18154 (Simulation time: 0 hr 6 min 0 sec) 
Heartbeat CPU 0 instructions: 90000003 cycles: 70489963 heartbeat IPC: 1.16413 cumulative IPC: 1.17933 (Simulation time: 0 hr 6 min 44 sec) 
Heartbeat CPU 0 instructions: 100000003 cycles: 78440119 heartbeat IPC: 1.25784 cumulative IPC: 1.18757 (Simulation time: 0 hr 7 min 28 sec) 
Heartbeat CPU 0 instructions: 110000001 cycles: 85697055 heartbeat IPC: 1.37799 cumulative IPC: 1.20421 (Simulation time: 0 hr 8 min 14 sec) 
Finished CPU 0 instructions: 100000004 cycles: 83041953 cumulative IPC: 1.20421 (Simulation time: 0 hr 8 min 14 sec) 

ChampSim completed all CPUs

Region of Interest Statistics

CPU 0 cumulative IPC: 1.20421 instructions: 100000004 cycles: 83041953
cpu0_DTLB TOTAL     ACCESS:   20938746  HIT:   19923503  MISS:    1015243
cpu0_DTLB LOAD      ACCESS:   15325858  HIT:   14391051  MISS:     934807
cpu0_DTLB RFO       ACCESS:    5612888  HIT:    5532452  MISS:      80436
cpu0_DTLB PREFETCH  ACCESS:          0  HIT:          0  MISS:          0
cpu0_DTLB WRITEBACK ACCESS:          0  HIT:          0  MISS:          0
cpu0_DTLB TRANSLATION ACCESS:          0  HIT:          0  MISS:          0
cpu0_DTLB PREFETCH  REQUESTED:          0  ISSUED:          0  USEFUL:          0  USELESS:          0
cpu0_DTLB AVERAGE MISS LATENCY: 12.6424 cycles
cpu0_ITLB TOTAL     ACCESS:    8533737  HIT:    8418702  MISS:     115035
cpu0_ITLB LOAD      ACCESS:    8533737  HIT:    8418702  MISS:     115035
cpu0_ITLB RFO       ACCESS:          0  HIT:          0  MISS:          0
cpu0_ITLB PREFETCH  ACCESS:          0  HIT:          0  MISS:          0
cpu0_ITLB WRITEBACK ACCESS:          0  HIT:          0  MISS:          0
cpu0_ITLB TRANSLATION ACCESS:          0  HIT:          0  MISS:          0
cpu0_ITLB PREFETCH  REQUESTED:          0  ISSUED:          0  USEFUL:          0  USELESS:          0
cpu0_ITLB AVERAGE MISS LATENCY: 9.08051 cycles
cpu0_L1I TOTAL     ACCESS:    5572259  HIT:    5474251  MISS:      98008
cpu0_L1I LOAD      ACCESS:    5572259  HIT:    5474251  MISS:      98008
cpu0_L1I RFO       ACCESS:          0  HIT:          0  MISS:          0
cpu0_L1I PREFETCH  ACCESS:          0  HIT:          0  MISS:          0
cpu0_L1I WRITEBACK ACCESS:          0  HIT:          0  MISS:          0
cpu0_L1I TRANSLATION ACCESS:          0  HIT:          0  MISS:          0
cpu0_L1I PREFETCH  REQUESTED:          0  ISSUED:          0  USEFUL:          0  USELESS:          0
cpu0_L1I AVERAGE MISS LATENCY: 14.8786 cycles
cpu0_STLB TOTAL     ACCESS:    1130278  HIT:    1056265  MISS:      74013
cpu0_STLB LOAD      ACCESS:    1049842  HIT:    1003753  MISS:      46089
cpu0_STLB RFO       ACCESS:      80436  HIT:      52512  MISS:      27924
cpu0_STLB PREFETCH  ACCESS:          0  HIT:          0  MISS:          0
cpu0_STLB WRITEBACK ACCESS:          0  HIT:          0  MISS:          0
cpu0_STLB TRANSLATION ACCESS:          0  HIT:          0  MISS:          0
cpu0_STLB PREFETCH  REQUESTED:          0  ISSUED:          0  USEFUL:          0  USELESS:          0
cpu0_STLB AVERAGE MISS LATENCY: 49.9327 cycles
cpu0_L1D TOTAL     ACCESS:   22871059  HIT:   21396456  MISS:    1474603
cpu0_L1D LOAD      ACCESS:   13616663  HIT:   12403287  MISS:    1213376
cpu0_L1D RFO       ACCESS:    9187515  HIT:    8941266  MISS:     246249
cpu0_L1D PREFETCH  ACCESS:          0  HIT:          0  MISS:          0
cpu0_L1D WRITEBACK ACCESS:          0  HIT:          0  MISS:          0
cpu0_L1D TRANSLATION ACCESS:      66881  HIT:      51903  MISS:      14978
cpu0_L1D PREFETCH  REQUESTED:          0  ISSUED:          0  USEFUL:          0  USELESS:          0
cpu0_L1D AVERAGE MISS LATENCY: 45.8478 cycles
cpu0_L2C TOTAL     ACCESS:    1931906  HIT:    1588132  MISS:     343774
cpu0_L2C LOAD      ACCESS:    1311343  HIT:    1191297  MISS:     120046
cpu0_L2C RFO       ACCESS:     246236  HIT:      23095  MISS:     223141
cpu0_L2C PREFETCH  ACCESS:          0  HIT:          0  MISS:          0
cpu0_L2C WRITEBACK ACCESS:     359349  HIT:     358862  MISS:        487
cpu0_L2C TRANSLATION ACCESS:      14978  HIT:      14878  MISS:        100
cpu0_L2C PREFETCH  REQUESTED:          0  ISSUED:          0  USEFUL:          0  USELESS:          0
cpu0_L2C AVERAGE MISS LATENCY: 150.003 cycles
LLC TOTAL     ACCESS:     632505  HIT:     231602  MISS:     400903
LLC LOAD      ACCESS:     120046  HIT:      69548  MISS:      50498
LLC RFO       ACCESS:     223141  HIT:      34476  MISS:     188665
LLC PREFETCH  ACCESS:          0  HIT:          0  MISS:          0
LLC WRITEBACK ACCESS:     289218  HIT:     127514  MISS:     161704
LLC TRANSLATION ACCESS:        100  HIT:         64  MISS:         36
LLC PREFETCH  REQUESTED:          0  ISSUED:          0  USEFUL:          0  USELESS:          0
LLC AVERAGE MISS LATENCY: 110.645 cycles
OPTgen accesses: 6079
OPTgen hits: 2182
OPTgen hit rate: 35.8941



DRAM Statistics
 CHANNEL 0
 RQ ROW_BUFFER_HIT:      98353  ROW_BUFFER_MISS:     140843
 DBUS AVG_CONGESTED_CYCLE:    3.94591
 WQ ROW_BUFFER_HIT:      17845  ROW_BUFFER_MISS:     195843  FULL:          0


CPU 0 Branch Prediction Accuracy: 96.4988% MPKI: 10.3974 Average ROB Occupancy at Mispredict: 40.2533
Branch type MPKI
BRANCH_DIRECT_JUMP: 0.0002
BRANCH_INDIRECT: 0.35495
BRANCH_CONDITIONAL: 7.96079
BRANCH_DIRECT_CALL: 9e-05
BRANCH_INDIRECT_CALL: 0.45393
BRANCH_RETURN: 1.62746

