
*** ChampSim Multicore Out-of-Order Simulator ***

Warmup Instructions: 10000000
Simulation Instructions: 100000000
Number of CPUs: 1
Off-chip DRAM Size: 4 GiB Channels: 1 Width: 64-bit Data Rate: 3200 MT/s

VirtualMemory physical capacity: 8588881920 num_ppages: 2096895
VirtualMemory page size: 4096 log2_page_size: 12

CPU 0 runs /datasets/cs240c-wi22-a00-public/data/Assignment2/GemsFDTD_109B.trace.xz
CPU 0 Bimodal branch predictor
Basic BTB sets: 1024 ways: 8 indirect buffer size: 4096 RAS size: 64
Initialize Hawkeye state
Heartbeat CPU 0 instructions: 10000004 cycles: 4294006 heartbeat IPC: 2.32883 cumulative IPC: 2.32883 (Simulation time: 0 hr 0 min 58 sec) 

Warmup complete CPU 0 instructions: 10000004 cycles: 4294006 (Simulation time: 0 hr 0 min 58 sec) 

Heartbeat CPU 0 instructions: 20000000 cycles: 35019272 heartbeat IPC: 0.325465 cumulative IPC: 0.325465 (Simulation time: 0 hr 4 min 32 sec) 
Heartbeat CPU 0 instructions: 30000004 cycles: 56567322 heartbeat IPC: 0.464079 cumulative IPC: 0.382604 (Simulation time: 0 hr 6 min 40 sec) 
Heartbeat CPU 0 instructions: 40000004 cycles: 62785676 heartbeat IPC: 1.60814 cumulative IPC: 0.512894 (Simulation time: 0 hr 7 min 32 sec) 
Heartbeat CPU 0 instructions: 50000002 cycles: 83613780 heartbeat IPC: 0.48012 cumulative IPC: 0.504288 (Simulation time: 0 hr 9 min 41 sec) 
Heartbeat CPU 0 instructions: 60000002 cycles: 124016443 heartbeat IPC: 0.247508 cumulative IPC: 0.417633 (Simulation time: 0 hr 13 min 52 sec) 
Heartbeat CPU 0 instructions: 70000004 cycles: 163815726 heartbeat IPC: 0.251261 cumulative IPC: 0.376124 (Simulation time: 0 hr 18 min 0 sec) 
Heartbeat CPU 0 instructions: 80000004 cycles: 203542552 heartbeat IPC: 0.251719 cumulative IPC: 0.35132 (Simulation time: 0 hr 22 min 14 sec) 
Heartbeat CPU 0 instructions: 90000000 cycles: 243247977 heartbeat IPC: 0.251855 cumulative IPC: 0.334792 (Simulation time: 0 hr 26 min 31 sec) 
Heartbeat CPU 0 instructions: 100000002 cycles: 283006050 heartbeat IPC: 0.251521 cumulative IPC: 0.322914 (Simulation time: 0 hr 30 min 54 sec) 
Heartbeat CPU 0 instructions: 110000004 cycles: 322710456 heartbeat IPC: 0.251861 cumulative IPC: 0.314054 (Simulation time: 0 hr 35 min 14 sec) 
Finished CPU 0 instructions: 100000000 cycles: 318416450 cumulative IPC: 0.314054 (Simulation time: 0 hr 35 min 14 sec) 

ChampSim completed all CPUs

Region of Interest Statistics

CPU 0 cumulative IPC: 0.314054 instructions: 100000000 cycles: 318416450
cpu0_DTLB TOTAL     ACCESS:   26448836  HIT:   26249413  MISS:     199423
cpu0_DTLB LOAD      ACCESS:   21017919  HIT:   20820499  MISS:     197420
cpu0_DTLB RFO       ACCESS:    5430917  HIT:    5428914  MISS:       2003
cpu0_DTLB PREFETCH  ACCESS:          0  HIT:          0  MISS:          0
cpu0_DTLB WRITEBACK ACCESS:          0  HIT:          0  MISS:          0
cpu0_DTLB TRANSLATION ACCESS:          0  HIT:          0  MISS:          0
cpu0_DTLB PREFETCH  REQUESTED:          0  ISSUED:          0  USEFUL:          0  USELESS:          0
cpu0_DTLB AVERAGE MISS LATENCY: 426.231 cycles
cpu0_ITLB TOTAL     ACCESS:    2044096  HIT:    2044078  MISS:         18
cpu0_ITLB LOAD      ACCESS:    2044096  HIT:    2044078  MISS:         18
cpu0_ITLB RFO       ACCESS:          0  HIT:          0  MISS:          0
cpu0_ITLB PREFETCH  ACCESS:          0  HIT:          0  MISS:          0
cpu0_ITLB WRITEBACK ACCESS:          0  HIT:          0  MISS:          0
cpu0_ITLB TRANSLATION ACCESS:          0  HIT:          0  MISS:          0
cpu0_ITLB PREFETCH  REQUESTED:          0  ISSUED:          0  USEFUL:          0  USELESS:          0
cpu0_ITLB AVERAGE MISS LATENCY: 255.111 cycles
cpu0_L1I TOTAL     ACCESS:    1722950  HIT:    1722520  MISS:        430
cpu0_L1I LOAD      ACCESS:    1722950  HIT:    1722520  MISS:        430
cpu0_L1I RFO       ACCESS:          0  HIT:          0  MISS:          0
cpu0_L1I PREFETCH  ACCESS:          0  HIT:          0  MISS:          0
cpu0_L1I WRITEBACK ACCESS:          0  HIT:          0  MISS:          0
cpu0_L1I TRANSLATION ACCESS:          0  HIT:          0  MISS:          0
cpu0_L1I PREFETCH  REQUESTED:          0  ISSUED:          0  USEFUL:          0  USELESS:          0
cpu0_L1I AVERAGE MISS LATENCY: 369.14 cycles
cpu0_STLB TOTAL     ACCESS:     199441  HIT:      33980  MISS:     165461
cpu0_STLB LOAD      ACCESS:     197438  HIT:      32671  MISS:     164767
cpu0_STLB RFO       ACCESS:       2003  HIT:       1309  MISS:        694
cpu0_STLB PREFETCH  ACCESS:          0  HIT:          0  MISS:          0
cpu0_STLB WRITEBACK ACCESS:          0  HIT:          0  MISS:          0
cpu0_STLB TRANSLATION ACCESS:          0  HIT:          0  MISS:          0
cpu0_STLB PREFETCH  REQUESTED:          0  ISSUED:          0  USEFUL:          0  USELESS:          0
cpu0_STLB AVERAGE MISS LATENCY: 502.78 cycles
cpu0_L1D TOTAL     ACCESS:   22885944  HIT:   19655782  MISS:    3230162
cpu0_L1D LOAD      ACCESS:   13786309  HIT:   10686453  MISS:    3099856
cpu0_L1D RFO       ACCESS:    9009265  HIT:    8881653  MISS:     127612
cpu0_L1D PREFETCH  ACCESS:          0  HIT:          0  MISS:          0
cpu0_L1D WRITEBACK ACCESS:          0  HIT:          0  MISS:          0
cpu0_L1D TRANSLATION ACCESS:      90370  HIT:      87676  MISS:       2694
cpu0_L1D PREFETCH  REQUESTED:          0  ISSUED:          0  USEFUL:          0  USELESS:          0
cpu0_L1D AVERAGE MISS LATENCY: 719.793 cycles
cpu0_L2C TOTAL     ACCESS:    4595424  HIT:    1423586  MISS:    3171838
cpu0_L2C LOAD      ACCESS:    3100286  HIT:      41194  MISS:    3059092
cpu0_L2C RFO       ACCESS:     127612  HIT:      15163  MISS:     112449
cpu0_L2C PREFETCH  ACCESS:          0  HIT:          0  MISS:          0
cpu0_L2C WRITEBACK ACCESS:    1364832  HIT:    1364733  MISS:         99
cpu0_L2C TRANSLATION ACCESS:       2694  HIT:       2496  MISS:        198
cpu0_L2C PREFETCH  REQUESTED:          0  ISSUED:          0  USEFUL:          0  USELESS:          0
cpu0_L2C AVERAGE MISS LATENCY: 721.86 cycles
LLC TOTAL     ACCESS:    4522897  HIT:    1089825  MISS:    3433072
LLC LOAD      ACCESS:    3059087  HIT:     708452  MISS:    2350635
LLC RFO       ACCESS:     112449  HIT:      91659  MISS:      20790
LLC PREFETCH  ACCESS:          0  HIT:          0  MISS:          0
LLC WRITEBACK ACCESS:    1351163  HIT:     289614  MISS:    1061549
LLC TRANSLATION ACCESS:        198  HIT:        100  MISS:         98
LLC PREFETCH  REQUESTED:          0  ISSUED:          0  USEFUL:          0  USELESS:          0
LLC AVERAGE MISS LATENCY: 647.529 cycles
OPTgen accesses: 53478
OPTgen hits: 13957
OPTgen hit rate: 26.0986



DRAM Statistics
 CHANNEL 0
 RQ ROW_BUFFER_HIT:      45218  ROW_BUFFER_MISS:    2326271
 DBUS AVG_CONGESTED_CYCLE:    3.99646
 WQ ROW_BUFFER_HIT:      20874  ROW_BUFFER_MISS:    1242528  FULL:      37006


CPU 0 Branch Prediction Accuracy: 98.929% MPKI: 0.55515 Average ROB Occupancy at Mispredict: 267.26
Branch type MPKI
BRANCH_DIRECT_JUMP: 0.00045
BRANCH_INDIRECT: 1e-05
BRANCH_CONDITIONAL: 0.5534
BRANCH_DIRECT_CALL: 0.00065
BRANCH_INDIRECT_CALL: 0
BRANCH_RETURN: 0.00064

