
*** ChampSim Multicore Out-of-Order Simulator ***

Warmup Instructions: 10000000
Simulation Instructions: 100000000
Number of CPUs: 1
Off-chip DRAM Size: 4 GiB Channels: 1 Width: 64-bit Data Rate: 3200 MT/s

VirtualMemory physical capacity: 8588881920 num_ppages: 2096895
VirtualMemory page size: 4096 log2_page_size: 12

CPU 0 runs /datasets/cs240c-wi22-a00-public/data/Assignment2/libquantum_1210B.trace.xz
CPU 0 Bimodal branch predictor
Basic BTB sets: 1024 ways: 8 indirect buffer size: 4096 RAS size: 64
Initialize Hawkeye state
Heartbeat CPU 0 instructions: 10000001 cycles: 2500056 heartbeat IPC: 3.99991 cumulative IPC: 3.99991 (Simulation time: 0 hr 0 min 24 sec) 

Warmup complete CPU 0 instructions: 10000001 cycles: 2500056 (Simulation time: 0 hr 0 min 24 sec) 

Heartbeat CPU 0 instructions: 20000000 cycles: 44187125 heartbeat IPC: 0.239883 cumulative IPC: 0.239883 (Simulation time: 0 hr 1 min 55 sec) 
Heartbeat CPU 0 instructions: 30000003 cycles: 82165570 heartbeat IPC: 0.263307 cumulative IPC: 0.25105 (Simulation time: 0 hr 3 min 22 sec) 
Heartbeat CPU 0 instructions: 40000002 cycles: 87931810 heartbeat IPC: 1.73423 cumulative IPC: 0.351157 (Simulation time: 0 hr 4 min 14 sec) 
Heartbeat CPU 0 instructions: 50000000 cycles: 105975376 heartbeat IPC: 0.554214 cumulative IPC: 0.386566 (Simulation time: 0 hr 5 min 17 sec) 
Heartbeat CPU 0 instructions: 60000001 cycles: 148996014 heartbeat IPC: 0.232447 cumulative IPC: 0.341306 (Simulation time: 0 hr 6 min 48 sec) 
Heartbeat CPU 0 instructions: 70000004 cycles: 186523275 heartbeat IPC: 0.266473 cumulative IPC: 0.326046 (Simulation time: 0 hr 8 min 11 sec) 
Heartbeat CPU 0 instructions: 80000001 cycles: 223558561 heartbeat IPC: 0.270013 cumulative IPC: 0.316658 (Simulation time: 0 hr 9 min 34 sec) 
Heartbeat CPU 0 instructions: 90000001 cycles: 264683469 heartbeat IPC: 0.243162 cumulative IPC: 0.30513 (Simulation time: 0 hr 11 min 3 sec) 
Heartbeat CPU 0 instructions: 100000002 cycles: 302868627 heartbeat IPC: 0.261882 cumulative IPC: 0.299632 (Simulation time: 0 hr 12 min 32 sec) 
Heartbeat CPU 0 instructions: 110000001 cycles: 307712063 heartbeat IPC: 2.06465 cumulative IPC: 0.327641 (Simulation time: 0 hr 13 min 18 sec) 
Finished CPU 0 instructions: 100000000 cycles: 305212007 cumulative IPC: 0.327641 (Simulation time: 0 hr 13 min 18 sec) 

ChampSim completed all CPUs

Region of Interest Statistics

CPU 0 cumulative IPC: 0.327641 instructions: 100000000 cycles: 305212007
cpu0_DTLB TOTAL     ACCESS:   11061447  HIT:   11014444  MISS:      47003
cpu0_DTLB LOAD      ACCESS:    9206984  HIT:    9159987  MISS:      46997
cpu0_DTLB RFO       ACCESS:    1854463  HIT:    1854457  MISS:          6
cpu0_DTLB PREFETCH  ACCESS:          0  HIT:          0  MISS:          0
cpu0_DTLB WRITEBACK ACCESS:          0  HIT:          0  MISS:          0
cpu0_DTLB TRANSLATION ACCESS:          0  HIT:          0  MISS:          0
cpu0_DTLB PREFETCH  REQUESTED:          0  ISSUED:          0  USEFUL:          0  USELESS:          0
cpu0_DTLB AVERAGE MISS LATENCY: 34.5093 cycles
cpu0_ITLB TOTAL     ACCESS:    4363335  HIT:    4363331  MISS:          4
cpu0_ITLB LOAD      ACCESS:    4363335  HIT:    4363331  MISS:          4
cpu0_ITLB RFO       ACCESS:          0  HIT:          0  MISS:          0
cpu0_ITLB PREFETCH  ACCESS:          0  HIT:          0  MISS:          0
cpu0_ITLB WRITEBACK ACCESS:          0  HIT:          0  MISS:          0
cpu0_ITLB TRANSLATION ACCESS:          0  HIT:          0  MISS:          0
cpu0_ITLB PREFETCH  REQUESTED:          0  ISSUED:          0  USEFUL:          0  USELESS:          0
cpu0_ITLB AVERAGE MISS LATENCY: 267.25 cycles
cpu0_L1I TOTAL     ACCESS:         38  HIT:         18  MISS:         20
cpu0_L1I LOAD      ACCESS:         38  HIT:         18  MISS:         20
cpu0_L1I RFO       ACCESS:          0  HIT:          0  MISS:          0
cpu0_L1I PREFETCH  ACCESS:          0  HIT:          0  MISS:          0
cpu0_L1I WRITEBACK ACCESS:          0  HIT:          0  MISS:          0
cpu0_L1I TRANSLATION ACCESS:          0  HIT:          0  MISS:          0
cpu0_L1I PREFETCH  REQUESTED:          0  ISSUED:          0  USEFUL:          0  USELESS:          0
cpu0_L1I AVERAGE MISS LATENCY: 203.35 cycles
cpu0_STLB TOTAL     ACCESS:      47007  HIT:          0  MISS:      47007
cpu0_STLB LOAD      ACCESS:      47001  HIT:          0  MISS:      47001
cpu0_STLB RFO       ACCESS:          6  HIT:          0  MISS:          6
cpu0_STLB PREFETCH  ACCESS:          0  HIT:          0  MISS:          0
cpu0_STLB WRITEBACK ACCESS:          0  HIT:          0  MISS:          0
cpu0_STLB TRANSLATION ACCESS:          0  HIT:          0  MISS:          0
cpu0_STLB PREFETCH  REQUESTED:          0  ISSUED:          0  USEFUL:          0  USELESS:          0
cpu0_STLB AVERAGE MISS LATENCY: 25.5291 cycles
cpu0_L1D TOTAL     ACCESS:    7108660  HIT:    4101856  MISS:    3006804
cpu0_L1D LOAD      ACCESS:    4891253  HIT:    1884507  MISS:    3006746
cpu0_L1D RFO       ACCESS:    2170399  HIT:    2170377  MISS:         22
cpu0_L1D PREFETCH  ACCESS:          0  HIT:          0  MISS:          0
cpu0_L1D WRITEBACK ACCESS:          0  HIT:          0  MISS:          0
cpu0_L1D TRANSLATION ACCESS:      47008  HIT:      46972  MISS:         36
cpu0_L1D PREFETCH  REQUESTED:          0  ISSUED:          0  USEFUL:          0  USELESS:          0
cpu0_L1D AVERAGE MISS LATENCY: 213.597 cycles
cpu0_L2C TOTAL     ACCESS:    4045647  HIT:    1038823  MISS:    3006824
cpu0_L2C LOAD      ACCESS:    3006766  HIT:          0  MISS:    3006766
cpu0_L2C RFO       ACCESS:         22  HIT:          0  MISS:         22
cpu0_L2C PREFETCH  ACCESS:          0  HIT:          0  MISS:          0
cpu0_L2C WRITEBACK ACCESS:    1038823  HIT:    1038823  MISS:          0
cpu0_L2C TRANSLATION ACCESS:         36  HIT:          0  MISS:         36
cpu0_L2C PREFETCH  REQUESTED:          0  ISSUED:          0  USEFUL:          0  USELESS:          0
cpu0_L2C AVERAGE MISS LATENCY: 202.594 cycles
LLC TOTAL     ACCESS:    4049066  HIT:     220408  MISS:    3828658
LLC LOAD      ACCESS:    3006766  HIT:     143209  MISS:    2863557
LLC RFO       ACCESS:         22  HIT:         10  MISS:         12
LLC PREFETCH  ACCESS:          0  HIT:          0  MISS:          0
LLC WRITEBACK ACCESS:    1042242  HIT:      77178  MISS:     965064
LLC TRANSLATION ACCESS:         36  HIT:         11  MISS:         25
LLC PREFETCH  REQUESTED:          0  ISSUED:          0  USEFUL:          0  USELESS:          0
LLC AVERAGE MISS LATENCY: 142.612 cycles
OPTgen accesses: 51093
OPTgen hits: 942
OPTgen hit rate: 1.8437



DRAM Statistics
 CHANNEL 0
 RQ ROW_BUFFER_HIT:    1417925  ROW_BUFFER_MISS:    1445670
 DBUS AVG_CONGESTED_CYCLE:    3.75697
 WQ ROW_BUFFER_HIT:     382717  ROW_BUFFER_MISS:     619385  FULL:      23802


CPU 0 Branch Prediction Accuracy: 89.9607% MPKI: 24.1485 Average ROB Occupancy at Mispredict: 2.8331
Branch type MPKI
BRANCH_DIRECT_JUMP: 4e-05
BRANCH_INDIRECT: 0
BRANCH_CONDITIONAL: 24.1482
BRANCH_DIRECT_CALL: 0.00011
BRANCH_INDIRECT_CALL: 0
BRANCH_RETURN: 0.00012

