
*** ChampSim Multicore Out-of-Order Simulator ***

Warmup Instructions: 10000000
Simulation Instructions: 100000000
Number of CPUs: 1
Off-chip DRAM Size: 4 GiB Channels: 1 Width: 64-bit Data Rate: 3200 MT/s

VirtualMemory physical capacity: 8588881920 num_ppages: 2096895
VirtualMemory page size: 4096 log2_page_size: 12

CPU 0 runs /datasets/cs240c-wi22-a00-public/data/Assignment2/mcf_158B.trace.xz
CPU 0 Bimodal branch predictor
Basic BTB sets: 1024 ways: 8 indirect buffer size: 4096 RAS size: 64
Initialize Hawkeye state
Heartbeat CPU 0 instructions: 10000002 cycles: 3864082 heartbeat IPC: 2.58794 cumulative IPC: 2.58794 (Simulation time: 0 hr 0 min 52 sec) 

Warmup complete CPU 0 instructions: 10000002 cycles: 3864082 (Simulation time: 0 hr 0 min 52 sec) 

Heartbeat CPU 0 instructions: 20000000 cycles: 139487392 heartbeat IPC: 0.0737336 cumulative IPC: 0.0737336 (Simulation time: 0 hr 4 min 30 sec) 
Heartbeat CPU 0 instructions: 30000000 cycles: 271328592 heartbeat IPC: 0.0758488 cumulative IPC: 0.0747763 (Simulation time: 0 hr 8 min 2 sec) 
Heartbeat CPU 0 instructions: 40000001 cycles: 401605039 heartbeat IPC: 0.0767599 cumulative IPC: 0.075426 (Simulation time: 0 hr 11 min 30 sec) 
Heartbeat CPU 0 instructions: 50000000 cycles: 521321863 heartbeat IPC: 0.0835304 cumulative IPC: 0.077301 (Simulation time: 0 hr 14 min 45 sec) 
Heartbeat CPU 0 instructions: 60000000 cycles: 639004816 heartbeat IPC: 0.0849741 cumulative IPC: 0.0787227 (Simulation time: 0 hr 18 min 2 sec) 
Heartbeat CPU 0 instructions: 70000002 cycles: 752280783 heartbeat IPC: 0.08828 cumulative IPC: 0.0801692 (Simulation time: 0 hr 21 min 15 sec) 
Heartbeat CPU 0 instructions: 80000000 cycles: 868482843 heartbeat IPC: 0.086057 cumulative IPC: 0.0809605 (Simulation time: 0 hr 24 min 34 sec) 
Heartbeat CPU 0 instructions: 90000003 cycles: 987912803 heartbeat IPC: 0.0837311 cumulative IPC: 0.0812968 (Simulation time: 0 hr 27 min 58 sec) 
Heartbeat CPU 0 instructions: 100000003 cycles: 1108622065 heartbeat IPC: 0.0828437 cumulative IPC: 0.0814658 (Simulation time: 0 hr 31 min 25 sec) 
Heartbeat CPU 0 instructions: 110000001 cycles: 1229322531 heartbeat IPC: 0.0828497 cumulative IPC: 0.0816021 (Simulation time: 0 hr 34 min 55 sec) 
Finished CPU 0 instructions: 100000002 cycles: 1225458450 cumulative IPC: 0.0816021 (Simulation time: 0 hr 34 min 55 sec) 

ChampSim completed all CPUs

Region of Interest Statistics

CPU 0 cumulative IPC: 0.0816021 instructions: 100000002 cycles: 1225458450
cpu0_DTLB TOTAL     ACCESS:   23556922  HIT:   12735068  MISS:   10821854
cpu0_DTLB LOAD      ACCESS:   20435562  HIT:    9980867  MISS:   10454695
cpu0_DTLB RFO       ACCESS:    3121360  HIT:    2754201  MISS:     367159
cpu0_DTLB PREFETCH  ACCESS:          0  HIT:          0  MISS:          0
cpu0_DTLB WRITEBACK ACCESS:          0  HIT:          0  MISS:          0
cpu0_DTLB TRANSLATION ACCESS:          0  HIT:          0  MISS:          0
cpu0_DTLB PREFETCH  REQUESTED:          0  ISSUED:          0  USEFUL:          0  USELESS:          0
cpu0_DTLB AVERAGE MISS LATENCY: 11.9648 cycles
cpu0_ITLB TOTAL     ACCESS:   12954969  HIT:   12954969  MISS:          0
cpu0_ITLB LOAD      ACCESS:   12954969  HIT:   12954969  MISS:          0
cpu0_ITLB RFO       ACCESS:          0  HIT:          0  MISS:          0
cpu0_ITLB PREFETCH  ACCESS:          0  HIT:          0  MISS:          0
cpu0_ITLB WRITEBACK ACCESS:          0  HIT:          0  MISS:          0
cpu0_ITLB TRANSLATION ACCESS:          0  HIT:          0  MISS:          0
cpu0_ITLB PREFETCH  REQUESTED:          0  ISSUED:          0  USEFUL:          0  USELESS:          0
cpu0_ITLB AVERAGE MISS LATENCY: -nan cycles
cpu0_L1I TOTAL     ACCESS:         19  HIT:         14  MISS:          5
cpu0_L1I LOAD      ACCESS:         19  HIT:         14  MISS:          5
cpu0_L1I RFO       ACCESS:          0  HIT:          0  MISS:          0
cpu0_L1I PREFETCH  ACCESS:          0  HIT:          0  MISS:          0
cpu0_L1I WRITEBACK ACCESS:          0  HIT:          0  MISS:          0
cpu0_L1I TRANSLATION ACCESS:          0  HIT:          0  MISS:          0
cpu0_L1I PREFETCH  REQUESTED:          0  ISSUED:          0  USEFUL:          0  USELESS:          0
cpu0_L1I AVERAGE MISS LATENCY: 194.4 cycles
cpu0_STLB TOTAL     ACCESS:   10821854  HIT:    9710592  MISS:    1111262
cpu0_STLB LOAD      ACCESS:   10454695  HIT:    9350199  MISS:    1104496
cpu0_STLB RFO       ACCESS:     367159  HIT:     360393  MISS:       6766
cpu0_STLB PREFETCH  ACCESS:          0  HIT:          0  MISS:          0
cpu0_STLB WRITEBACK ACCESS:          0  HIT:          0  MISS:          0
cpu0_STLB TRANSLATION ACCESS:          0  HIT:          0  MISS:          0
cpu0_STLB PREFETCH  REQUESTED:          0  ISSUED:          0  USEFUL:          0  USELESS:          0
cpu0_STLB AVERAGE MISS LATENCY: 28.8346 cycles
cpu0_L1D TOTAL     ACCESS:   27618255  HIT:   14074389  MISS:   13543866
cpu0_L1D LOAD      ACCESS:   22271480  HIT:    9101623  MISS:   13169857
cpu0_L1D RFO       ACCESS:    4239367  HIT:    4034367  MISS:     205000
cpu0_L1D PREFETCH  ACCESS:          0  HIT:          0  MISS:          0
cpu0_L1D WRITEBACK ACCESS:          0  HIT:          0  MISS:          0
cpu0_L1D TRANSLATION ACCESS:    1107408  HIT:     938399  MISS:     169009
cpu0_L1D PREFETCH  REQUESTED:          0  ISSUED:          0  USEFUL:          0  USELESS:          0
cpu0_L1D AVERAGE MISS LATENCY: 163.097 cycles
cpu0_L2C TOTAL     ACCESS:   15650972  HIT:    6137741  MISS:    9513231
cpu0_L2C LOAD      ACCESS:   13169492  HIT:    3841482  MISS:    9328010
cpu0_L2C RFO       ACCESS:     204994  HIT:      71737  MISS:     133257
cpu0_L2C PREFETCH  ACCESS:          0  HIT:          0  MISS:          0
cpu0_L2C WRITEBACK ACCESS:    2107477  HIT:    2107124  MISS:        353
cpu0_L2C TRANSLATION ACCESS:     169009  HIT:     117398  MISS:      51611
cpu0_L2C PREFETCH  REQUESTED:          0  ISSUED:          0  USEFUL:          0  USELESS:          0
cpu0_L2C AVERAGE MISS LATENCY: 216.466 cycles
LLC TOTAL     ACCESS:   11017620  HIT:    4301321  MISS:    6716299
LLC LOAD      ACCESS:    9328008  HIT:    3413196  MISS:    5914812
LLC RFO       ACCESS:     133257  HIT:      63802  MISS:      69455
LLC PREFETCH  ACCESS:          0  HIT:          0  MISS:          0
LLC WRITEBACK ACCESS:    1504744  HIT:     816734  MISS:     688010
LLC TRANSLATION ACCESS:      51611  HIT:       7589  MISS:      44022
LLC PREFETCH  REQUESTED:          0  ISSUED:          0  USEFUL:          0  USELESS:          0
LLC AVERAGE MISS LATENCY: 276.866 cycles
OPTgen accesses: 172518
OPTgen hits: 73216
OPTgen hit rate: 42.4396



DRAM Statistics
 CHANNEL 0
 RQ ROW_BUFFER_HIT:      18882  ROW_BUFFER_MISS:    6008494
 DBUS AVG_CONGESTED_CYCLE:    3.96564
 WQ ROW_BUFFER_HIT:      42790  ROW_BUFFER_MISS:    1012644  FULL:          0


CPU 0 Branch Prediction Accuracy: 85.5988% MPKI: 40.2398 Average ROB Occupancy at Mispredict: 17.1442
Branch type MPKI
BRANCH_DIRECT_JUMP: 4e-05
BRANCH_INDIRECT: 0
BRANCH_CONDITIONAL: 40.2397
BRANCH_DIRECT_CALL: 0
BRANCH_INDIRECT_CALL: 0
BRANCH_RETURN: 0

