
*** ChampSim Multicore Out-of-Order Simulator ***

Warmup Instructions: 10000000
Simulation Instructions: 100000000
Number of CPUs: 1
Off-chip DRAM Size: 4 GiB Channels: 1 Width: 64-bit Data Rate: 3200 MT/s

VirtualMemory physical capacity: 8588881920 num_ppages: 2096895
VirtualMemory page size: 4096 log2_page_size: 12

CPU 0 runs /datasets/cs240c-wi22-a00-public/data/Assignment2/mcf_250B.trace.xz
CPU 0 Bimodal branch predictor
Basic BTB sets: 1024 ways: 8 indirect buffer size: 4096 RAS size: 64
Initialize Hawkeye state
Heartbeat CPU 0 instructions: 10000004 cycles: 3834276 heartbeat IPC: 2.60806 cumulative IPC: 2.60806 (Simulation time: 0 hr 0 min 52 sec) 

Warmup complete CPU 0 instructions: 10000004 cycles: 3834276 (Simulation time: 0 hr 0 min 52 sec) 

Heartbeat CPU 0 instructions: 20000000 cycles: 147488520 heartbeat IPC: 0.0696116 cumulative IPC: 0.0696116 (Simulation time: 0 hr 4 min 58 sec) 
Heartbeat CPU 0 instructions: 30000000 cycles: 285615770 heartbeat IPC: 0.072397 cumulative IPC: 0.070977 (Simulation time: 0 hr 8 min 52 sec) 
Heartbeat CPU 0 instructions: 40000000 cycles: 435933992 heartbeat IPC: 0.0665255 cumulative IPC: 0.0694284 (Simulation time: 0 hr 12 min 59 sec) 
Heartbeat CPU 0 instructions: 50000000 cycles: 577224676 heartbeat IPC: 0.0707761 cumulative IPC: 0.0697605 (Simulation time: 0 hr 17 min 11 sec) 
Heartbeat CPU 0 instructions: 60000000 cycles: 717993214 heartbeat IPC: 0.0710386 cumulative IPC: 0.0700124 (Simulation time: 0 hr 21 min 26 sec) 
Heartbeat CPU 0 instructions: 70000000 cycles: 851671251 heartbeat IPC: 0.0748066 cumulative IPC: 0.0707683 (Simulation time: 0 hr 25 min 32 sec) 
Heartbeat CPU 0 instructions: 80000000 cycles: 995305791 heartbeat IPC: 0.0696211 cumulative IPC: 0.0706021 (Simulation time: 0 hr 29 min 55 sec) 
Heartbeat CPU 0 instructions: 90000000 cycles: 1122117321 heartbeat IPC: 0.0788572 cumulative IPC: 0.0715382 (Simulation time: 0 hr 33 min 53 sec) 
Heartbeat CPU 0 instructions: 100000000 cycles: 1262532391 heartbeat IPC: 0.0712174 cumulative IPC: 0.0715024 (Simulation time: 0 hr 38 min 12 sec) 
Heartbeat CPU 0 instructions: 110000000 cycles: 1405861078 heartbeat IPC: 0.0697697 cumulative IPC: 0.0713253 (Simulation time: 0 hr 42 min 32 sec) 
Finished CPU 0 instructions: 100000000 cycles: 1402026813 cumulative IPC: 0.0713253 (Simulation time: 0 hr 42 min 32 sec) 

ChampSim completed all CPUs

Region of Interest Statistics

CPU 0 cumulative IPC: 0.0713253 instructions: 100000000 cycles: 1402026813
cpu0_DTLB TOTAL     ACCESS:   20766407  HIT:    2976119  MISS:   17790288
cpu0_DTLB LOAD      ACCESS:   20271171  HIT:    2536774  MISS:   17734397
cpu0_DTLB RFO       ACCESS:     495236  HIT:     439345  MISS:      55891
cpu0_DTLB PREFETCH  ACCESS:          0  HIT:          0  MISS:          0
cpu0_DTLB WRITEBACK ACCESS:          0  HIT:          0  MISS:          0
cpu0_DTLB TRANSLATION ACCESS:          0  HIT:          0  MISS:          0
cpu0_DTLB PREFETCH  REQUESTED:          0  ISSUED:          0  USEFUL:          0  USELESS:          0
cpu0_DTLB AVERAGE MISS LATENCY: 11.9373 cycles
cpu0_ITLB TOTAL     ACCESS:   11315019  HIT:   11315019  MISS:          0
cpu0_ITLB LOAD      ACCESS:   11315019  HIT:   11315019  MISS:          0
cpu0_ITLB RFO       ACCESS:          0  HIT:          0  MISS:          0
cpu0_ITLB PREFETCH  ACCESS:          0  HIT:          0  MISS:          0
cpu0_ITLB WRITEBACK ACCESS:          0  HIT:          0  MISS:          0
cpu0_ITLB TRANSLATION ACCESS:          0  HIT:          0  MISS:          0
cpu0_ITLB PREFETCH  REQUESTED:          0  ISSUED:          0  USEFUL:          0  USELESS:          0
cpu0_ITLB AVERAGE MISS LATENCY: -nan cycles
cpu0_L1I TOTAL     ACCESS:          4  HIT:          4  MISS:          0
cpu0_L1I LOAD      ACCESS:          4  HIT:          4  MISS:          0
cpu0_L1I RFO       ACCESS:          0  HIT:          0  MISS:          0
cpu0_L1I PREFETCH  ACCESS:          0  HIT:          0  MISS:          0
cpu0_L1I WRITEBACK ACCESS:          0  HIT:          0  MISS:          0
cpu0_L1I TRANSLATION ACCESS:          0  HIT:          0  MISS:          0
cpu0_L1I PREFETCH  REQUESTED:          0  ISSUED:          0  USEFUL:          0  USELESS:          0
cpu0_L1I AVERAGE MISS LATENCY: -nan cycles
cpu0_STLB TOTAL     ACCESS:   17790288  HIT:   17413157  MISS:     377131
cpu0_STLB LOAD      ACCESS:   17734397  HIT:   17359403  MISS:     374994
cpu0_STLB RFO       ACCESS:      55891  HIT:      53754  MISS:       2137
cpu0_STLB PREFETCH  ACCESS:          0  HIT:          0  MISS:          0
cpu0_STLB WRITEBACK ACCESS:          0  HIT:          0  MISS:          0
cpu0_STLB TRANSLATION ACCESS:          0  HIT:          0  MISS:          0
cpu0_STLB PREFETCH  REQUESTED:          0  ISSUED:          0  USEFUL:          0  USELESS:          0
cpu0_STLB AVERAGE MISS LATENCY: 138.531 cycles
cpu0_L1D TOTAL     ACCESS:   21384531  HIT:    3440638  MISS:   17943893
cpu0_L1D LOAD      ACCESS:   20343897  HIT:    2559934  MISS:   17783963
cpu0_L1D RFO       ACCESS:     664709  HIT:     633049  MISS:      31660
cpu0_L1D PREFETCH  ACCESS:          0  HIT:          0  MISS:          0
cpu0_L1D WRITEBACK ACCESS:          0  HIT:          0  MISS:          0
cpu0_L1D TRANSLATION ACCESS:     375925  HIT:     247655  MISS:     128270
cpu0_L1D PREFETCH  REQUESTED:          0  ISSUED:          0  USEFUL:          0  USELESS:          0
cpu0_L1D AVERAGE MISS LATENCY: 230.406 cycles
cpu0_L2C TOTAL     ACCESS:   18302501  HIT:    5792252  MISS:   12510249
cpu0_L2C LOAD      ACCESS:   17783936  HIT:    5386580  MISS:   12397356
cpu0_L2C RFO       ACCESS:      31659  HIT:       9144  MISS:      22515
cpu0_L2C PREFETCH  ACCESS:          0  HIT:          0  MISS:          0
cpu0_L2C WRITEBACK ACCESS:     358636  HIT:     358634  MISS:          2
cpu0_L2C TRANSLATION ACCESS:     128270  HIT:      37894  MISS:      90376
cpu0_L2C PREFETCH  REQUESTED:          0  ISSUED:          0  USEFUL:          0  USELESS:          0
cpu0_L2C AVERAGE MISS LATENCY: 314.69 cycles
LLC TOTAL     ACCESS:   12800183  HIT:    5760575  MISS:    7039608
LLC LOAD      ACCESS:   12397356  HIT:    5568086  MISS:    6829270
LLC RFO       ACCESS:      22515  HIT:      11185  MISS:      11330
LLC PREFETCH  ACCESS:          0  HIT:          0  MISS:          0
LLC WRITEBACK ACCESS:     289936  HIT:     170070  MISS:     119866
LLC TRANSLATION ACCESS:      90376  HIT:      11234  MISS:      79142
LLC PREFETCH  REQUESTED:          0  ISSUED:          0  USEFUL:          0  USELESS:          0
LLC AVERAGE MISS LATENCY: 521.924 cycles
OPTgen accesses: 215310
OPTgen hits: 97503
OPTgen hit rate: 45.2849



DRAM Statistics
 CHANNEL 0
 RQ ROW_BUFFER_HIT:      41963  ROW_BUFFER_MISS:    6877576
 DBUS AVG_CONGESTED_CYCLE:    3.96289
 WQ ROW_BUFFER_HIT:      10153  ROW_BUFFER_MISS:     210051  FULL:          0


CPU 0 Branch Prediction Accuracy: 91.6559% MPKI: 25.5287 Average ROB Occupancy at Mispredict: 24.4578
Branch type MPKI
BRANCH_DIRECT_JUMP: 2e-05
BRANCH_INDIRECT: 0
BRANCH_CONDITIONAL: 25.5287
BRANCH_DIRECT_CALL: 0
BRANCH_INDIRECT_CALL: 0
BRANCH_RETURN: 0

