
*** ChampSim Multicore Out-of-Order Simulator ***

Warmup Instructions: 10000000
Simulation Instructions: 100000000
Number of CPUs: 1
Off-chip DRAM Size: 4 GiB Channels: 1 Width: 64-bit Data Rate: 3200 MT/s

VirtualMemory physical capacity: 8588881920 num_ppages: 2096895
VirtualMemory page size: 4096 log2_page_size: 12

CPU 0 runs /Users/raghavprasad/brandon/Homework2/traces/GemsFDTD_712B.trace.xz
CPU 0 Bimodal branch predictor
Basic BTB sets: 1024 ways: 8 indirect buffer size: 4096 RAS size: 64
Initialize Hawkeye state
Heartbeat CPU 0 instructions: 10000003 cycles: 4479620 heartbeat IPC: 2.23233 cumulative IPC: 2.23233 (Simulation time: 0 hr 0 min 59 sec) 

Warmup complete CPU 0 instructions: 10000003 cycles: 4479620 (Simulation time: 0 hr 0 min 59 sec) 

Heartbeat CPU 0 instructions: 20000000 cycles: 44394121 heartbeat IPC: 0.250535 cumulative IPC: 0.250535 (Simulation time: 0 hr 5 min 22 sec) 
Heartbeat CPU 0 instructions: 30000000 cycles: 83878554 heartbeat IPC: 0.253264 cumulative IPC: 0.251893 (Simulation time: 0 hr 9 min 55 sec) 
Heartbeat CPU 0 instructions: 40000004 cycles: 123967069 heartbeat IPC: 0.249448 cumulative IPC: 0.251072 (Simulation time: 0 hr 14 min 33 sec) 
Heartbeat CPU 0 instructions: 50000003 cycles: 164499507 heartbeat IPC: 0.246716 cumulative IPC: 0.249969 (Simulation time: 0 hr 19 min 6 sec) 
Heartbeat CPU 0 instructions: 60000003 cycles: 203824721 heartbeat IPC: 0.25429 cumulative IPC: 0.250821 (Simulation time: 0 hr 23 min 46 sec) 
Heartbeat CPU 0 instructions: 70000002 cycles: 243298396 heartbeat IPC: 0.253333 cumulative IPC: 0.251237 (Simulation time: 0 hr 28 min 42 sec) 
Heartbeat CPU 0 instructions: 80000000 cycles: 278976875 heartbeat IPC: 0.280281 cumulative IPC: 0.255012 (Simulation time: 0 hr 32 min 1 sec) 
Heartbeat CPU 0 instructions: 90000000 cycles: 314028159 heartbeat IPC: 0.285296 cumulative IPC: 0.258441 (Simulation time: 0 hr 35 min 16 sec) 
Heartbeat CPU 0 instructions: 100000001 cycles: 348265814 heartbeat IPC: 0.292076 cumulative IPC: 0.261791 (Simulation time: 0 hr 38 min 30 sec) 
Heartbeat CPU 0 instructions: 110000002 cycles: 381442677 heartbeat IPC: 0.301415 cumulative IPC: 0.265278 (Simulation time: 0 hr 41 min 44 sec) 
Finished CPU 0 instructions: 100000004 cycles: 376963058 cumulative IPC: 0.265278 (Simulation time: 0 hr 41 min 44 sec) 

ChampSim completed all CPUs

Region of Interest Statistics

CPU 0 cumulative IPC: 0.265278 instructions: 100000004 cycles: 376963058
cpu0_DTLB TOTAL     ACCESS:   29842610  HIT:   29639964  MISS:     202646
cpu0_DTLB LOAD      ACCESS:   23900410  HIT:   23697764  MISS:     202646
cpu0_DTLB RFO       ACCESS:    5942200  HIT:    5942200  MISS:          0
cpu0_DTLB PREFETCH  ACCESS:          0  HIT:          0  MISS:          0
cpu0_DTLB WRITEBACK ACCESS:          0  HIT:          0  MISS:          0
cpu0_DTLB TRANSLATION ACCESS:          0  HIT:          0  MISS:          0
cpu0_DTLB PREFETCH  REQUESTED:          0  ISSUED:          0  USEFUL:          0  USELESS:          0
cpu0_DTLB AVERAGE MISS LATENCY: 158.139 cycles
cpu0_ITLB TOTAL     ACCESS:    1686144  HIT:    1686138  MISS:          6
cpu0_ITLB LOAD      ACCESS:    1686144  HIT:    1686138  MISS:          6
cpu0_ITLB RFO       ACCESS:          0  HIT:          0  MISS:          0
cpu0_ITLB PREFETCH  ACCESS:          0  HIT:          0  MISS:          0
cpu0_ITLB WRITEBACK ACCESS:          0  HIT:          0  MISS:          0
cpu0_ITLB TRANSLATION ACCESS:          0  HIT:          0  MISS:          0
cpu0_ITLB PREFETCH  REQUESTED:          0  ISSUED:          0  USEFUL:          0  USELESS:          0
cpu0_ITLB AVERAGE MISS LATENCY: 311 cycles
cpu0_L1I TOTAL     ACCESS:    3165722  HIT:    3165627  MISS:         95
cpu0_L1I LOAD      ACCESS:    3165722  HIT:    3165627  MISS:         95
cpu0_L1I RFO       ACCESS:          0  HIT:          0  MISS:          0
cpu0_L1I PREFETCH  ACCESS:          0  HIT:          0  MISS:          0
cpu0_L1I WRITEBACK ACCESS:          0  HIT:          0  MISS:          0
cpu0_L1I TRANSLATION ACCESS:          0  HIT:          0  MISS:          0
cpu0_L1I PREFETCH  REQUESTED:          0  ISSUED:          0  USEFUL:          0  USELESS:          0
cpu0_L1I AVERAGE MISS LATENCY: 519.358 cycles
cpu0_STLB TOTAL     ACCESS:     202652  HIT:      49544  MISS:     153108
cpu0_STLB LOAD      ACCESS:     202652  HIT:      49544  MISS:     153108
cpu0_STLB RFO       ACCESS:          0  HIT:          0  MISS:          0
cpu0_STLB PREFETCH  ACCESS:          0  HIT:          0  MISS:          0
cpu0_STLB WRITEBACK ACCESS:          0  HIT:          0  MISS:          0
cpu0_STLB TRANSLATION ACCESS:          0  HIT:          0  MISS:          0
cpu0_STLB PREFETCH  REQUESTED:          0  ISSUED:          0  USEFUL:          0  USELESS:          0
cpu0_STLB AVERAGE MISS LATENCY: 197.338 cycles
cpu0_L1D TOTAL     ACCESS:   29748855  HIT:   26400802  MISS:    3348053
cpu0_L1D LOAD      ACCESS:   18516921  HIT:   15171065  MISS:    3345856
cpu0_L1D RFO       ACCESS:   11079382  HIT:   11079362  MISS:         20
cpu0_L1D PREFETCH  ACCESS:          0  HIT:          0  MISS:          0
cpu0_L1D WRITEBACK ACCESS:          0  HIT:          0  MISS:          0
cpu0_L1D TRANSLATION ACCESS:     152552  HIT:     150375  MISS:       2177
cpu0_L1D PREFETCH  REQUESTED:          0  ISSUED:          0  USEFUL:          0  USELESS:          0
cpu0_L1D AVERAGE MISS LATENCY: 677.919 cycles
cpu0_L2C TOTAL     ACCESS:    4725119  HIT:    1562006  MISS:    3163113
cpu0_L2C LOAD      ACCESS:    3345951  HIT:     182947  MISS:    3163004
cpu0_L2C RFO       ACCESS:         20  HIT:          0  MISS:         20
cpu0_L2C PREFETCH  ACCESS:          0  HIT:          0  MISS:          0
cpu0_L2C WRITEBACK ACCESS:    1376971  HIT:    1376967  MISS:          4
cpu0_L2C TRANSLATION ACCESS:       2177  HIT:       2092  MISS:         85
cpu0_L2C PREFETCH  REQUESTED:          0  ISSUED:          0  USEFUL:          0  USELESS:          0
cpu0_L2C AVERAGE MISS LATENCY: 705.904 cycles
LLC TOTAL     ACCESS:    4538993  HIT:     714041  MISS:    3824952
LLC LOAD      ACCESS:    3163004  HIT:     587061  MISS:    2575943
LLC RFO       ACCESS:         20  HIT:          0  MISS:         20
LLC PREFETCH  ACCESS:          0  HIT:          0  MISS:          0
LLC WRITEBACK ACCESS:    1375884  HIT:     126939  MISS:    1248945
LLC TRANSLATION ACCESS:         85  HIT:         41  MISS:         44
LLC PREFETCH  REQUESTED:          0  ISSUED:          0  USEFUL:          0  USELESS:          0
LLC AVERAGE MISS LATENCY: 566.394 cycles
OPTgen accesses: 55429
OPTgen hits: 11938
OPTgen hit rate: 21.5375



DRAM Statistics
 CHANNEL 0
 RQ ROW_BUFFER_HIT:       8879  ROW_BUFFER_MISS:    2567128
 DBUS AVG_CONGESTED_CYCLE:     3.9978
 WQ ROW_BUFFER_HIT:      17779  ROW_BUFFER_MISS:    1345879  FULL:          0


CPU 0 Branch Prediction Accuracy: 90.9863% MPKI: 1.62566 Average ROB Occupancy at Mispredict: 227.474
Branch type MPKI
BRANCH_DIRECT_JUMP: 5e-05
BRANCH_INDIRECT: 0
BRANCH_CONDITIONAL: 1.62559
BRANCH_DIRECT_CALL: 1e-05
BRANCH_INDIRECT_CALL: 0
BRANCH_RETURN: 1e-05

