
*** ChampSim Multicore Out-of-Order Simulator ***

Warmup Instructions: 10000000
Simulation Instructions: 100000000
Number of CPUs: 1
Off-chip DRAM Size: 4 GiB Channels: 1 Width: 64-bit Data Rate: 3200 MT/s

VirtualMemory physical capacity: 8588881920 num_ppages: 2096895
VirtualMemory page size: 4096 log2_page_size: 12

CPU 0 runs /Users/raghavprasad/brandon/Homework2/traces/h264ref_178B.trace.xz
CPU 0 Bimodal branch predictor
Basic BTB sets: 1024 ways: 8 indirect buffer size: 4096 RAS size: 64
Initialize Hawkeye state
Heartbeat CPU 0 instructions: 10000000 cycles: 3417062 heartbeat IPC: 2.92649 cumulative IPC: 2.92649 (Simulation time: 0 hr 1 min 0 sec) 

Warmup complete CPU 0 instructions: 10000002 cycles: 3417064 (Simulation time: 0 hr 1 min 0 sec) 

Heartbeat CPU 0 instructions: 20000003 cycles: 9540751 heartbeat IPC: 1.633 cumulative IPC: 1.633 (Simulation time: 0 hr 2 min 22 sec) 
Heartbeat CPU 0 instructions: 30000002 cycles: 15272886 heartbeat IPC: 1.74455 cumulative IPC: 1.68693 (Simulation time: 0 hr 3 min 38 sec) 
Heartbeat CPU 0 instructions: 40000002 cycles: 21170721 heartbeat IPC: 1.69554 cumulative IPC: 1.68979 (Simulation time: 0 hr 4 min 29 sec) 
Heartbeat CPU 0 instructions: 50000004 cycles: 28394756 heartbeat IPC: 1.38427 cumulative IPC: 1.60143 (Simulation time: 0 hr 5 min 35 sec) 
Heartbeat CPU 0 instructions: 60000004 cycles: 34528664 heartbeat IPC: 1.63028 cumulative IPC: 1.60712 (Simulation time: 0 hr 7 min 5 sec) 
Heartbeat CPU 0 instructions: 70000003 cycles: 39941201 heartbeat IPC: 1.84756 cumulative IPC: 1.64275 (Simulation time: 0 hr 8 min 16 sec) 
Heartbeat CPU 0 instructions: 80000001 cycles: 47707696 heartbeat IPC: 1.28758 cumulative IPC: 1.58047 (Simulation time: 0 hr 9 min 3 sec) 
Heartbeat CPU 0 instructions: 90000004 cycles: 54018795 heartbeat IPC: 1.58451 cumulative IPC: 1.58097 (Simulation time: 0 hr 10 min 22 sec) 
Heartbeat CPU 0 instructions: 100000000 cycles: 60062269 heartbeat IPC: 1.65468 cumulative IPC: 1.58884 (Simulation time: 0 hr 11 min 46 sec) 
Heartbeat CPU 0 instructions: 110000003 cycles: 66002745 heartbeat IPC: 1.68337 cumulative IPC: 1.59781 (Simulation time: 0 hr 12 min 44 sec) 
Finished CPU 0 instructions: 100000001 cycles: 62585681 cumulative IPC: 1.59781 (Simulation time: 0 hr 12 min 44 sec) 

ChampSim completed all CPUs

Region of Interest Statistics

CPU 0 cumulative IPC: 1.59781 instructions: 100000001 cycles: 62585681
cpu0_DTLB TOTAL     ACCESS:   21808037  HIT:   21681326  MISS:     126711
cpu0_DTLB LOAD      ACCESS:   18465293  HIT:   18371647  MISS:      93646
cpu0_DTLB RFO       ACCESS:    3342744  HIT:    3309679  MISS:      33065
cpu0_DTLB PREFETCH  ACCESS:          0  HIT:          0  MISS:          0
cpu0_DTLB WRITEBACK ACCESS:          0  HIT:          0  MISS:          0
cpu0_DTLB TRANSLATION ACCESS:          0  HIT:          0  MISS:          0
cpu0_DTLB PREFETCH  REQUESTED:          0  ISSUED:          0  USEFUL:          0  USELESS:          0
cpu0_DTLB AVERAGE MISS LATENCY: 9.8659 cycles
cpu0_ITLB TOTAL     ACCESS:    5572263  HIT:    5571920  MISS:        343
cpu0_ITLB LOAD      ACCESS:    5572263  HIT:    5571920  MISS:        343
cpu0_ITLB RFO       ACCESS:          0  HIT:          0  MISS:          0
cpu0_ITLB PREFETCH  ACCESS:          0  HIT:          0  MISS:          0
cpu0_ITLB WRITEBACK ACCESS:          0  HIT:          0  MISS:          0
cpu0_ITLB TRANSLATION ACCESS:          0  HIT:          0  MISS:          0
cpu0_ITLB PREFETCH  REQUESTED:          0  ISSUED:          0  USEFUL:          0  USELESS:          0
cpu0_ITLB AVERAGE MISS LATENCY: 9.86006 cycles
cpu0_L1I TOTAL     ACCESS:    5687126  HIT:    5672593  MISS:      14533
cpu0_L1I LOAD      ACCESS:    5687126  HIT:    5672593  MISS:      14533
cpu0_L1I RFO       ACCESS:          0  HIT:          0  MISS:          0
cpu0_L1I PREFETCH  ACCESS:          0  HIT:          0  MISS:          0
cpu0_L1I WRITEBACK ACCESS:          0  HIT:          0  MISS:          0
cpu0_L1I TRANSLATION ACCESS:          0  HIT:          0  MISS:          0
cpu0_L1I PREFETCH  REQUESTED:          0  ISSUED:          0  USEFUL:          0  USELESS:          0
cpu0_L1I AVERAGE MISS LATENCY: 42.98 cycles
cpu0_STLB TOTAL     ACCESS:     127054  HIT:     126286  MISS:        768
cpu0_STLB LOAD      ACCESS:      93989  HIT:      93612  MISS:        377
cpu0_STLB RFO       ACCESS:      33065  HIT:      32674  MISS:        391
cpu0_STLB PREFETCH  ACCESS:          0  HIT:          0  MISS:          0
cpu0_STLB WRITEBACK ACCESS:          0  HIT:          0  MISS:          0
cpu0_STLB TRANSLATION ACCESS:          0  HIT:          0  MISS:          0
cpu0_STLB PREFETCH  REQUESTED:          0  ISSUED:          0  USEFUL:          0  USELESS:          0
cpu0_STLB AVERAGE MISS LATENCY: 141.829 cycles
cpu0_L1D TOTAL     ACCESS:   23021392  HIT:   22708400  MISS:     312992
cpu0_L1D LOAD      ACCESS:   17158552  HIT:   16936382  MISS:     222170
cpu0_L1D RFO       ACCESS:    5862159  HIT:    5771472  MISS:      90687
cpu0_L1D PREFETCH  ACCESS:          0  HIT:          0  MISS:          0
cpu0_L1D WRITEBACK ACCESS:          0  HIT:          0  MISS:          0
cpu0_L1D TRANSLATION ACCESS:        681  HIT:        546  MISS:        135
cpu0_L1D PREFETCH  REQUESTED:          0  ISSUED:          0  USEFUL:          0  USELESS:          0
cpu0_L1D AVERAGE MISS LATENCY: 68.2715 cycles
cpu0_L2C TOTAL     ACCESS:     419993  HIT:     239054  MISS:     180939
cpu0_L2C LOAD      ACCESS:     236702  HIT:     141074  MISS:      95628
cpu0_L2C RFO       ACCESS:      90685  HIT:       5490  MISS:      85195
cpu0_L2C PREFETCH  ACCESS:          0  HIT:          0  MISS:          0
cpu0_L2C WRITEBACK ACCESS:      92471  HIT:      92368  MISS:        103
cpu0_L2C TRANSLATION ACCESS:        135  HIT:        122  MISS:         13
cpu0_L2C PREFETCH  REQUESTED:          0  ISSUED:          0  USEFUL:          0  USELESS:          0
cpu0_L2C AVERAGE MISS LATENCY: 101.564 cycles
LLC TOTAL     ACCESS:     270632  HIT:     195810  MISS:      74822
LLC LOAD      ACCESS:      95628  HIT:      65283  MISS:      30345
LLC RFO       ACCESS:      85195  HIT:      48679  MISS:      36516
LLC PREFETCH  ACCESS:          0  HIT:          0  MISS:          0
LLC WRITEBACK ACCESS:      89796  HIT:      81835  MISS:       7961
LLC TRANSLATION ACCESS:         13  HIT:         13  MISS:          0
LLC PREFETCH  REQUESTED:          0  ISSUED:          0  USEFUL:          0  USELESS:          0
LLC AVERAGE MISS LATENCY: 194.85 cycles
OPTgen accesses: 3082
OPTgen hits: 2078
OPTgen hit rate: 67.4238



DRAM Statistics
 CHANNEL 0
 RQ ROW_BUFFER_HIT:      19914  ROW_BUFFER_MISS:      46905
 DBUS AVG_CONGESTED_CYCLE:    3.91241
 WQ ROW_BUFFER_HIT:       4530  ROW_BUFFER_MISS:      28622  FULL:       1216


CPU 0 Branch Prediction Accuracy: 94.363% MPKI: 4.48464 Average ROB Occupancy at Mispredict: 160.427
Branch type MPKI
BRANCH_DIRECT_JUMP: 0.00024
BRANCH_INDIRECT: 0.00166
BRANCH_CONDITIONAL: 4.48115
BRANCH_DIRECT_CALL: 6e-05
BRANCH_INDIRECT_CALL: 0.00061
BRANCH_RETURN: 0.00092

