
*** ChampSim Multicore Out-of-Order Simulator ***

Warmup Instructions: 10000000
Simulation Instructions: 100000000
Number of CPUs: 1
Off-chip DRAM Size: 4 GiB Channels: 1 Width: 64-bit Data Rate: 3200 MT/s

VirtualMemory physical capacity: 8588881920 num_ppages: 2096895
VirtualMemory page size: 4096 log2_page_size: 12

CPU 0 runs /Users/raghavprasad/brandon/Homework2/traces/hmmer_397B.trace.xz
CPU 0 Bimodal branch predictor
Basic BTB sets: 1024 ways: 8 indirect buffer size: 4096 RAS size: 64
Initialize Hawkeye state
Heartbeat CPU 0 instructions: 10000000 cycles: 3996186 heartbeat IPC: 2.50239 cumulative IPC: 2.50239 (Simulation time: 0 hr 1 min 14 sec) 

Warmup complete CPU 0 instructions: 10000005 cycles: 3996189 (Simulation time: 0 hr 1 min 14 sec) 

Heartbeat CPU 0 instructions: 20000002 cycles: 9345604 heartbeat IPC: 1.86936 cumulative IPC: 1.86936 (Simulation time: 0 hr 3 min 1 sec) 
Heartbeat CPU 0 instructions: 30000003 cycles: 14247562 heartbeat IPC: 2.04 cumulative IPC: 1.95096 (Simulation time: 0 hr 4 min 42 sec) 
Heartbeat CPU 0 instructions: 40000003 cycles: 19128458 heartbeat IPC: 2.0488 cumulative IPC: 1.98252 (Simulation time: 0 hr 6 min 19 sec) 
Heartbeat CPU 0 instructions: 50000001 cycles: 24399992 heartbeat IPC: 1.89698 cumulative IPC: 1.96042 (Simulation time: 0 hr 8 min 1 sec) 
Heartbeat CPU 0 instructions: 60000002 cycles: 28926854 heartbeat IPC: 2.20904 cumulative IPC: 2.00556 (Simulation time: 0 hr 9 min 43 sec) 
Heartbeat CPU 0 instructions: 70000004 cycles: 33553253 heartbeat IPC: 2.16151 cumulative IPC: 2.02997 (Simulation time: 0 hr 11 min 30 sec) 
Heartbeat CPU 0 instructions: 80000000 cycles: 37916731 heartbeat IPC: 2.29175 cumulative IPC: 2.06365 (Simulation time: 0 hr 13 min 8 sec) 
Heartbeat CPU 0 instructions: 90000004 cycles: 42272359 heartbeat IPC: 2.29588 cumulative IPC: 2.09007 (Simulation time: 0 hr 14 min 42 sec) 
Heartbeat CPU 0 instructions: 100000003 cycles: 46611265 heartbeat IPC: 2.30473 cumulative IPC: 2.11193 (Simulation time: 0 hr 16 min 22 sec) 
Heartbeat CPU 0 instructions: 110000001 cycles: 50957842 heartbeat IPC: 2.30066 cumulative IPC: 2.1294 (Simulation time: 0 hr 17 min 59 sec) 
Finished CPU 0 instructions: 100000001 cycles: 46961654 cumulative IPC: 2.1294 (Simulation time: 0 hr 17 min 59 sec) 

ChampSim completed all CPUs

Region of Interest Statistics

CPU 0 cumulative IPC: 2.1294 instructions: 100000001 cycles: 46961654
cpu0_DTLB TOTAL     ACCESS:   40461172  HIT:   40453216  MISS:       7956
cpu0_DTLB LOAD      ACCESS:   32298290  HIT:   32295412  MISS:       2878
cpu0_DTLB RFO       ACCESS:    8162882  HIT:    8157804  MISS:       5078
cpu0_DTLB PREFETCH  ACCESS:          0  HIT:          0  MISS:          0
cpu0_DTLB WRITEBACK ACCESS:          0  HIT:          0  MISS:          0
cpu0_DTLB TRANSLATION ACCESS:          0  HIT:          0  MISS:          0
cpu0_DTLB PREFETCH  REQUESTED:          0  ISSUED:          0  USEFUL:          0  USELESS:          0
cpu0_DTLB AVERAGE MISS LATENCY: 26.2535 cycles
cpu0_ITLB TOTAL     ACCESS:     800893  HIT:     800786  MISS:        107
cpu0_ITLB LOAD      ACCESS:     800893  HIT:     800786  MISS:        107
cpu0_ITLB RFO       ACCESS:          0  HIT:          0  MISS:          0
cpu0_ITLB PREFETCH  ACCESS:          0  HIT:          0  MISS:          0
cpu0_ITLB WRITEBACK ACCESS:          0  HIT:          0  MISS:          0
cpu0_ITLB TRANSLATION ACCESS:          0  HIT:          0  MISS:          0
cpu0_ITLB PREFETCH  REQUESTED:          0  ISSUED:          0  USEFUL:          0  USELESS:          0
cpu0_ITLB AVERAGE MISS LATENCY: 79.271 cycles
cpu0_L1I TOTAL     ACCESS:      64796  HIT:      64460  MISS:        336
cpu0_L1I LOAD      ACCESS:      64796  HIT:      64460  MISS:        336
cpu0_L1I RFO       ACCESS:          0  HIT:          0  MISS:          0
cpu0_L1I PREFETCH  ACCESS:          0  HIT:          0  MISS:          0
cpu0_L1I WRITEBACK ACCESS:          0  HIT:          0  MISS:          0
cpu0_L1I TRANSLATION ACCESS:          0  HIT:          0  MISS:          0
cpu0_L1I PREFETCH  REQUESTED:          0  ISSUED:          0  USEFUL:          0  USELESS:          0
cpu0_L1I AVERAGE MISS LATENCY: 282.208 cycles
cpu0_STLB TOTAL     ACCESS:       8063  HIT:       7283  MISS:        780
cpu0_STLB LOAD      ACCESS:       2985  HIT:       2818  MISS:        167
cpu0_STLB RFO       ACCESS:       5078  HIT:       4465  MISS:        613
cpu0_STLB PREFETCH  ACCESS:          0  HIT:          0  MISS:          0
cpu0_STLB WRITEBACK ACCESS:          0  HIT:          0  MISS:          0
cpu0_STLB TRANSLATION ACCESS:          0  HIT:          0  MISS:          0
cpu0_STLB PREFETCH  REQUESTED:          0  ISSUED:          0  USEFUL:          0  USELESS:          0
cpu0_STLB AVERAGE MISS LATENCY: 185.535 cycles
cpu0_L1D TOTAL     ACCESS:   32974808  HIT:   32509006  MISS:     465802
cpu0_L1D LOAD      ACCESS:   28668178  HIT:   28511546  MISS:     156632
cpu0_L1D RFO       ACCESS:    4305861  HIT:    3996876  MISS:     308985
cpu0_L1D PREFETCH  ACCESS:          0  HIT:          0  MISS:          0
cpu0_L1D WRITEBACK ACCESS:          0  HIT:          0  MISS:          0
cpu0_L1D TRANSLATION ACCESS:        769  HIT:        584  MISS:        185
cpu0_L1D PREFETCH  REQUESTED:          0  ISSUED:          0  USEFUL:          0  USELESS:          0
cpu0_L1D AVERAGE MISS LATENCY: 308.583 cycles
cpu0_L2C TOTAL     ACCESS:     773206  HIT:     487457  MISS:     285749
cpu0_L2C LOAD      ACCESS:     156968  HIT:     143035  MISS:      13933
cpu0_L2C RFO       ACCESS:     308985  HIT:      37231  MISS:     271754
cpu0_L2C PREFETCH  ACCESS:          0  HIT:          0  MISS:          0
cpu0_L2C WRITEBACK ACCESS:     307068  HIT:     307025  MISS:         43
cpu0_L2C TRANSLATION ACCESS:        185  HIT:        166  MISS:         19
cpu0_L2C PREFETCH  REQUESTED:          0  ISSUED:          0  USEFUL:          0  USELESS:          0
cpu0_L2C AVERAGE MISS LATENCY: 485.398 cycles
LLC TOTAL     ACCESS:     556077  HIT:     352755  MISS:     203322
LLC LOAD      ACCESS:      13933  HIT:      10039  MISS:       3894
LLC RFO       ACCESS:     271637  HIT:     150668  MISS:     120969
LLC PREFETCH  ACCESS:          0  HIT:          0  MISS:          0
LLC WRITEBACK ACCESS:     270488  HIT:     192038  MISS:      78450
LLC TRANSLATION ACCESS:         19  HIT:         10  MISS:          9
LLC PREFETCH  REQUESTED:          0  ISSUED:          0  USEFUL:          0  USELESS:          0
LLC AVERAGE MISS LATENCY: 652.65 cycles
OPTgen accesses: 5028
OPTgen hits: 3057
OPTgen hit rate: 60.7995



DRAM Statistics
 CHANNEL 0
 RQ ROW_BUFFER_HIT:       1603  ROW_BUFFER_MISS:     123249
 DBUS AVG_CONGESTED_CYCLE:     3.9935
 WQ ROW_BUFFER_HIT:       8760  ROW_BUFFER_MISS:     112380  FULL:      10871


CPU 0 Branch Prediction Accuracy: 98.9257% MPKI: 0.41399 Average ROB Occupancy at Mispredict: 249.845
Branch type MPKI
BRANCH_DIRECT_JUMP: 0.00081
BRANCH_INDIRECT: 0.00176
BRANCH_CONDITIONAL: 0.40978
BRANCH_DIRECT_CALL: 0.00081
BRANCH_INDIRECT_CALL: 2e-05
BRANCH_RETURN: 0.00081

