
*** ChampSim Multicore Out-of-Order Simulator ***

Warmup Instructions: 10000000
Simulation Instructions: 100000000
Number of CPUs: 1
Off-chip DRAM Size: 4 GiB Channels: 1 Width: 64-bit Data Rate: 3200 MT/s

VirtualMemory physical capacity: 8588881920 num_ppages: 2096895
VirtualMemory page size: 4096 log2_page_size: 12

CPU 0 runs /Users/raghavprasad/brandon/Homework2/traces/leslie3d_94B.trace.xz
CPU 0 Bimodal branch predictor
Basic BTB sets: 1024 ways: 8 indirect buffer size: 4096 RAS size: 64
Initialize Hawkeye state
Heartbeat CPU 0 instructions: 10000002 cycles: 4308718 heartbeat IPC: 2.32088 cumulative IPC: 2.32088 (Simulation time: 0 hr 1 min 39 sec) 

Warmup complete CPU 0 instructions: 10000002 cycles: 4308718 (Simulation time: 0 hr 1 min 39 sec) 

Heartbeat CPU 0 instructions: 20000004 cycles: 25070308 heartbeat IPC: 0.481659 cumulative IPC: 0.481659 (Simulation time: 0 hr 5 min 10 sec) 
Heartbeat CPU 0 instructions: 30000001 cycles: 77605118 heartbeat IPC: 0.19035 cumulative IPC: 0.272865 (Simulation time: 0 hr 12 min 39 sec) 
Heartbeat CPU 0 instructions: 40000001 cycles: 88035673 heartbeat IPC: 0.958722 cumulative IPC: 0.358308 (Simulation time: 0 hr 14 min 56 sec) 
Heartbeat CPU 0 instructions: 50000002 cycles: 98340587 heartbeat IPC: 0.970411 cumulative IPC: 0.425388 (Simulation time: 0 hr 17 min 11 sec) 
Heartbeat CPU 0 instructions: 60000003 cycles: 108546361 heartbeat IPC: 0.979838 cumulative IPC: 0.479673 (Simulation time: 0 hr 19 min 28 sec) 
Heartbeat CPU 0 instructions: 70000001 cycles: 118773525 heartbeat IPC: 0.977788 cumulative IPC: 0.524179 (Simulation time: 0 hr 21 min 45 sec) 
Heartbeat CPU 0 instructions: 80000004 cycles: 132401280 heartbeat IPC: 0.733797 cumulative IPC: 0.54648 (Simulation time: 0 hr 24 min 30 sec) 
Heartbeat CPU 0 instructions: 90000004 cycles: 165785475 heartbeat IPC: 0.299543 cumulative IPC: 0.495427 (Simulation time: 0 hr 29 min 48 sec) 
Heartbeat CPU 0 instructions: 100000001 cycles: 222489004 heartbeat IPC: 0.176356 cumulative IPC: 0.412503 (Simulation time: 0 hr 38 min 12 sec) 
Heartbeat CPU 0 instructions: 110000004 cycles: 238745945 heartbeat IPC: 0.615122 cumulative IPC: 0.426553 (Simulation time: 0 hr 40 min 34 sec) 
Finished CPU 0 instructions: 100000002 cycles: 234437227 cumulative IPC: 0.426553 (Simulation time: 0 hr 40 min 34 sec) 

ChampSim completed all CPUs

Region of Interest Statistics

CPU 0 cumulative IPC: 0.426553 instructions: 100000002 cycles: 234437227
cpu0_DTLB TOTAL     ACCESS:   26710123  HIT:   26597445  MISS:     112678
cpu0_DTLB LOAD      ACCESS:   21453755  HIT:   21357965  MISS:      95790
cpu0_DTLB RFO       ACCESS:    5256368  HIT:    5239480  MISS:      16888
cpu0_DTLB PREFETCH  ACCESS:          0  HIT:          0  MISS:          0
cpu0_DTLB WRITEBACK ACCESS:          0  HIT:          0  MISS:          0
cpu0_DTLB TRANSLATION ACCESS:          0  HIT:          0  MISS:          0
cpu0_DTLB PREFETCH  REQUESTED:          0  ISSUED:          0  USEFUL:          0  USELESS:          0
cpu0_DTLB AVERAGE MISS LATENCY: 100.875 cycles
cpu0_ITLB TOTAL     ACCESS:    3127997  HIT:    3127940  MISS:         57
cpu0_ITLB LOAD      ACCESS:    3127997  HIT:    3127940  MISS:         57
cpu0_ITLB RFO       ACCESS:          0  HIT:          0  MISS:          0
cpu0_ITLB PREFETCH  ACCESS:          0  HIT:          0  MISS:          0
cpu0_ITLB WRITEBACK ACCESS:          0  HIT:          0  MISS:          0
cpu0_ITLB TRANSLATION ACCESS:          0  HIT:          0  MISS:          0
cpu0_ITLB PREFETCH  REQUESTED:          0  ISSUED:          0  USEFUL:          0  USELESS:          0
cpu0_ITLB AVERAGE MISS LATENCY: 235.877 cycles
cpu0_L1I TOTAL     ACCESS:    1637570  HIT:    1636498  MISS:       1072
cpu0_L1I LOAD      ACCESS:    1637570  HIT:    1636498  MISS:       1072
cpu0_L1I RFO       ACCESS:          0  HIT:          0  MISS:          0
cpu0_L1I PREFETCH  ACCESS:          0  HIT:          0  MISS:          0
cpu0_L1I WRITEBACK ACCESS:          0  HIT:          0  MISS:          0
cpu0_L1I TRANSLATION ACCESS:          0  HIT:          0  MISS:          0
cpu0_L1I PREFETCH  REQUESTED:          0  ISSUED:          0  USEFUL:          0  USELESS:          0
cpu0_L1I AVERAGE MISS LATENCY: 310.452 cycles
cpu0_STLB TOTAL     ACCESS:     112735  HIT:      63039  MISS:      49696
cpu0_STLB LOAD      ACCESS:      95847  HIT:      56482  MISS:      39365
cpu0_STLB RFO       ACCESS:      16888  HIT:       6557  MISS:      10331
cpu0_STLB PREFETCH  ACCESS:          0  HIT:          0  MISS:          0
cpu0_STLB WRITEBACK ACCESS:          0  HIT:          0  MISS:          0
cpu0_STLB TRANSLATION ACCESS:          0  HIT:          0  MISS:          0
cpu0_STLB PREFETCH  REQUESTED:          0  ISSUED:          0  USEFUL:          0  USELESS:          0
cpu0_STLB AVERAGE MISS LATENCY: 208.495 cycles
cpu0_L1D TOTAL     ACCESS:   22203774  HIT:   18167815  MISS:    4035959
cpu0_L1D LOAD      ACCESS:   13822658  HIT:   10733798  MISS:    3088860
cpu0_L1D RFO       ACCESS:    8338668  HIT:    7396483  MISS:     942185
cpu0_L1D PREFETCH  ACCESS:          0  HIT:          0  MISS:          0
cpu0_L1D WRITEBACK ACCESS:          0  HIT:          0  MISS:          0
cpu0_L1D TRANSLATION ACCESS:      42448  HIT:      37534  MISS:       4914
cpu0_L1D PREFETCH  REQUESTED:          0  ISSUED:          0  USEFUL:          0  USELESS:          0
cpu0_L1D AVERAGE MISS LATENCY: 622.712 cycles
cpu0_L2C TOTAL     ACCESS:    5249028  HIT:    2252128  MISS:    2996900
cpu0_L2C LOAD      ACCESS:    3089929  HIT:     790035  MISS:    2299894
cpu0_L2C RFO       ACCESS:     942108  HIT:     247308  MISS:     694800
cpu0_L2C PREFETCH  ACCESS:          0  HIT:          0  MISS:          0
cpu0_L2C WRITEBACK ACCESS:    1212077  HIT:    1210134  MISS:       1943
cpu0_L2C TRANSLATION ACCESS:       4914  HIT:       4651  MISS:        263
cpu0_L2C PREFETCH  REQUESTED:          0  ISSUED:          0  USEFUL:          0  USELESS:          0
cpu0_L2C AVERAGE MISS LATENCY: 823.831 cycles
LLC TOTAL     ACCESS:    3925473  HIT:     658547  MISS:    3266926
LLC LOAD      ACCESS:    2299894  HIT:     382925  MISS:    1916969
LLC RFO       ACCESS:     694788  HIT:      36137  MISS:     658651
LLC PREFETCH  ACCESS:          0  HIT:          0  MISS:          0
LLC WRITEBACK ACCESS:     930528  HIT:     239420  MISS:     691108
LLC TRANSLATION ACCESS:        263  HIT:         65  MISS:        198
LLC PREFETCH  REQUESTED:          0  ISSUED:          0  USEFUL:          0  USELESS:          0
LLC AVERAGE MISS LATENCY: 736.427 cycles
OPTgen accesses: 50348
OPTgen hits: 11323
OPTgen hit rate: 22.4895



DRAM Statistics
 CHANNEL 0
 RQ ROW_BUFFER_HIT:     171654  ROW_BUFFER_MISS:    2403941
 DBUS AVG_CONGESTED_CYCLE:    3.97289
 WQ ROW_BUFFER_HIT:      48441  ROW_BUFFER_MISS:     818560  FULL:      15121


CPU 0 Branch Prediction Accuracy: 96.9231% MPKI: 1.73686 Average ROB Occupancy at Mispredict: 309.264
Branch type MPKI
BRANCH_DIRECT_JUMP: 0.00082
BRANCH_INDIRECT: 0.00014
BRANCH_CONDITIONAL: 1.73229
BRANCH_DIRECT_CALL: 0.00185
BRANCH_INDIRECT_CALL: 3e-05
BRANCH_RETURN: 0.00173

