
*** ChampSim Multicore Out-of-Order Simulator ***

Warmup Instructions: 10000000
Simulation Instructions: 100000000
Number of CPUs: 1
Off-chip DRAM Size: 4 GiB Channels: 1 Width: 64-bit Data Rate: 3200 MT/s

VirtualMemory physical capacity: 8588881920 num_ppages: 2096895
VirtualMemory page size: 4096 log2_page_size: 12

CPU 0 runs /Users/raghavprasad/brandon/Homework2/traces/bwaves_1861B.trace.xz
CPU 0 Bimodal branch predictor
Basic BTB sets: 1024 ways: 8 indirect buffer size: 4096 RAS size: 64
Initialize Hawkeye state
Heartbeat CPU 0 instructions: 10000002 cycles: 4727892 heartbeat IPC: 2.11511 cumulative IPC: 2.11511 (Simulation time: 0 hr 1 min 50 sec) 

Warmup complete CPU 0 instructions: 10000002 cycles: 4727892 (Simulation time: 0 hr 1 min 50 sec) 

Heartbeat CPU 0 instructions: 20000002 cycles: 38893141 heartbeat IPC: 0.292695 cumulative IPC: 0.292695 (Simulation time: 0 hr 5 min 43 sec) 
Heartbeat CPU 0 instructions: 30000004 cycles: 73066336 heartbeat IPC: 0.292627 cumulative IPC: 0.292661 (Simulation time: 0 hr 9 min 34 sec) 
Heartbeat CPU 0 instructions: 40000002 cycles: 107235617 heartbeat IPC: 0.29266 cumulative IPC: 0.292661 (Simulation time: 0 hr 13 min 19 sec) 
Heartbeat CPU 0 instructions: 50000003 cycles: 141414867 heartbeat IPC: 0.292575 cumulative IPC: 0.292639 (Simulation time: 0 hr 17 min 9 sec) 
Heartbeat CPU 0 instructions: 60000000 cycles: 175615374 heartbeat IPC: 0.292393 cumulative IPC: 0.29259 (Simulation time: 0 hr 20 min 53 sec) 
Heartbeat CPU 0 instructions: 70000001 cycles: 210007962 heartbeat IPC: 0.29076 cumulative IPC: 0.292284 (Simulation time: 0 hr 24 min 42 sec) 
Heartbeat CPU 0 instructions: 80000001 cycles: 244191037 heartbeat IPC: 0.292542 cumulative IPC: 0.292321 (Simulation time: 0 hr 28 min 28 sec) 
Heartbeat CPU 0 instructions: 90000001 cycles: 271901757 heartbeat IPC: 0.360871 cumulative IPC: 0.29943 (Simulation time: 0 hr 31 min 45 sec) 
Heartbeat CPU 0 instructions: 100000002 cycles: 285259230 heartbeat IPC: 0.748645 cumulative IPC: 0.32082 (Simulation time: 0 hr 33 min 59 sec) 
Heartbeat CPU 0 instructions: 110000001 cycles: 305261783 heartbeat IPC: 0.499936 cumulative IPC: 0.332741 (Simulation time: 0 hr 36 min 52 sec) 
Finished CPU 0 instructions: 100000004 cycles: 300533892 cumulative IPC: 0.332741 (Simulation time: 0 hr 36 min 52 sec) 

ChampSim completed all CPUs

Region of Interest Statistics

CPU 0 cumulative IPC: 0.332741 instructions: 100000004 cycles: 300533892
cpu0_DTLB TOTAL     ACCESS:   32234592  HIT:   32198000  MISS:      36592
cpu0_DTLB LOAD      ACCESS:   30508967  HIT:   30473076  MISS:      35891
cpu0_DTLB RFO       ACCESS:    1725625  HIT:    1724924  MISS:        701
cpu0_DTLB PREFETCH  ACCESS:          0  HIT:          0  MISS:          0
cpu0_DTLB WRITEBACK ACCESS:          0  HIT:          0  MISS:          0
cpu0_DTLB TRANSLATION ACCESS:          0  HIT:          0  MISS:          0
cpu0_DTLB PREFETCH  REQUESTED:          0  ISSUED:          0  USEFUL:          0  USELESS:          0
cpu0_DTLB AVERAGE MISS LATENCY: 234.423 cycles
cpu0_ITLB TOTAL     ACCESS:    9876510  HIT:    9876508  MISS:          2
cpu0_ITLB LOAD      ACCESS:    9876510  HIT:    9876508  MISS:          2
cpu0_ITLB RFO       ACCESS:          0  HIT:          0  MISS:          0
cpu0_ITLB PREFETCH  ACCESS:          0  HIT:          0  MISS:          0
cpu0_ITLB WRITEBACK ACCESS:          0  HIT:          0  MISS:          0
cpu0_ITLB TRANSLATION ACCESS:          0  HIT:          0  MISS:          0
cpu0_ITLB PREFETCH  REQUESTED:          0  ISSUED:          0  USEFUL:          0  USELESS:          0
cpu0_ITLB AVERAGE MISS LATENCY: 319.5 cycles
cpu0_L1I TOTAL     ACCESS:         28  HIT:         12  MISS:         16
cpu0_L1I LOAD      ACCESS:         28  HIT:         12  MISS:         16
cpu0_L1I RFO       ACCESS:          0  HIT:          0  MISS:          0
cpu0_L1I PREFETCH  ACCESS:          0  HIT:          0  MISS:          0
cpu0_L1I WRITEBACK ACCESS:          0  HIT:          0  MISS:          0
cpu0_L1I TRANSLATION ACCESS:          0  HIT:          0  MISS:          0
cpu0_L1I PREFETCH  REQUESTED:          0  ISSUED:          0  USEFUL:          0  USELESS:          0
cpu0_L1I AVERAGE MISS LATENCY: 251.562 cycles
cpu0_STLB TOTAL     ACCESS:      36594  HIT:       1139  MISS:      35455
cpu0_STLB LOAD      ACCESS:      35893  HIT:       1139  MISS:      34754
cpu0_STLB RFO       ACCESS:        701  HIT:          0  MISS:        701
cpu0_STLB PREFETCH  ACCESS:          0  HIT:          0  MISS:          0
cpu0_STLB WRITEBACK ACCESS:          0  HIT:          0  MISS:          0
cpu0_STLB TRANSLATION ACCESS:          0  HIT:          0  MISS:          0
cpu0_STLB PREFETCH  REQUESTED:          0  ISSUED:          0  USEFUL:          0  USELESS:          0
cpu0_STLB AVERAGE MISS LATENCY: 232.176 cycles
cpu0_L1D TOTAL     ACCESS:   27683377  HIT:   25271316  MISS:    2412061
cpu0_L1D LOAD      ACCESS:   24979672  HIT:   22614424  MISS:    2365248
cpu0_L1D RFO       ACCESS:    2668250  HIT:    2623379  MISS:      44871
cpu0_L1D PREFETCH  ACCESS:          0  HIT:          0  MISS:          0
cpu0_L1D WRITEBACK ACCESS:          0  HIT:          0  MISS:          0
cpu0_L1D TRANSLATION ACCESS:      35455  HIT:      33513  MISS:       1942
cpu0_L1D PREFETCH  REQUESTED:          0  ISSUED:          0  USEFUL:          0  USELESS:          0
cpu0_L1D AVERAGE MISS LATENCY: 988.906 cycles
cpu0_L2C TOTAL     ACCESS:    2572723  HIT:     254901  MISS:    2317822
cpu0_L2C LOAD      ACCESS:    2365264  HIT:      92339  MISS:    2272925
cpu0_L2C RFO       ACCESS:      44871  HIT:          0  MISS:      44871
cpu0_L2C PREFETCH  ACCESS:          0  HIT:          0  MISS:          0
cpu0_L2C WRITEBACK ACCESS:     160646  HIT:     160641  MISS:          5
cpu0_L2C TRANSLATION ACCESS:       1942  HIT:       1921  MISS:         21
cpu0_L2C PREFETCH  REQUESTED:          0  ISSUED:          0  USEFUL:          0  USELESS:          0
cpu0_L2C AVERAGE MISS LATENCY: 1017.28 cycles
LLC TOTAL     ACCESS:    2473672  HIT:     113279  MISS:    2360393
LLC LOAD      ACCESS:    2272925  HIT:      92253  MISS:    2180672
LLC RFO       ACCESS:      44871  HIT:          0  MISS:      44871
LLC PREFETCH  ACCESS:          0  HIT:          0  MISS:          0
LLC WRITEBACK ACCESS:     155855  HIT:      21026  MISS:     134829
LLC TRANSLATION ACCESS:         21  HIT:          0  MISS:         21
LLC PREFETCH  REQUESTED:          0  ISSUED:          0  USEFUL:          0  USELESS:          0
LLC AVERAGE MISS LATENCY: 978.316 cycles
OPTgen accesses: 39773
OPTgen hits: 2420
OPTgen hit rate: 6.08453



DRAM Statistics
 CHANNEL 0
 RQ ROW_BUFFER_HIT:      22482  ROW_BUFFER_MISS:    2203041
 DBUS AVG_CONGESTED_CYCLE:    3.96339
 WQ ROW_BUFFER_HIT:      19147  ROW_BUFFER_MISS:     121074  FULL:          0


CPU 0 Branch Prediction Accuracy: 70.4481% MPKI: 17.8647 Average ROB Occupancy at Mispredict: 235.515
Branch type MPKI
BRANCH_DIRECT_JUMP: 2e-05
BRANCH_INDIRECT: 0
BRANCH_CONDITIONAL: 17.8646
BRANCH_DIRECT_CALL: 0
BRANCH_INDIRECT_CALL: 0
BRANCH_RETURN: 1e-05

