
*** ChampSim Multicore Out-of-Order Simulator ***

Warmup Instructions: 10000000
Simulation Instructions: 100000000
Number of CPUs: 1
Off-chip DRAM Size: 4 GiB Channels: 1 Width: 64-bit Data Rate: 3200 MT/s

VirtualMemory physical capacity: 8588881920 num_ppages: 2096895
VirtualMemory page size: 4096 log2_page_size: 12

CPU 0 runs /Users/raghavprasad/brandon/Homework2/traces/bzip2_281B.trace.xz
CPU 0 Bimodal branch predictor
Basic BTB sets: 1024 ways: 8 indirect buffer size: 4096 RAS size: 64
Initialize Hawkeye state
Heartbeat CPU 0 instructions: 10000004 cycles: 3227448 heartbeat IPC: 3.09842 cumulative IPC: 3.09842 (Simulation time: 0 hr 0 min 58 sec) 

Warmup complete CPU 0 instructions: 10000004 cycles: 3227448 (Simulation time: 0 hr 0 min 58 sec) 

Heartbeat CPU 0 instructions: 20000000 cycles: 13843212 heartbeat IPC: 0.941995 cumulative IPC: 0.941995 (Simulation time: 0 hr 1 min 59 sec) 
Heartbeat CPU 0 instructions: 30000001 cycles: 26343505 heartbeat IPC: 0.799981 cumulative IPC: 0.865199 (Simulation time: 0 hr 3 min 43 sec) 
Heartbeat CPU 0 instructions: 40000002 cycles: 30997335 heartbeat IPC: 2.14877 cumulative IPC: 1.08031 (Simulation time: 0 hr 4 min 22 sec) 
Heartbeat CPU 0 instructions: 50000002 cycles: 36256571 heartbeat IPC: 1.90142 cumulative IPC: 1.21105 (Simulation time: 0 hr 5 min 9 sec) 
Heartbeat CPU 0 instructions: 60000000 cycles: 41604348 heartbeat IPC: 1.86994 cumulative IPC: 1.30287 (Simulation time: 0 hr 6 min 3 sec) 
Heartbeat CPU 0 instructions: 70000004 cycles: 49127740 heartbeat IPC: 1.32919 cumulative IPC: 1.30718 (Simulation time: 0 hr 7 min 26 sec) 
Heartbeat CPU 0 instructions: 80000003 cycles: 56740636 heartbeat IPC: 1.31356 cumulative IPC: 1.30809 (Simulation time: 0 hr 8 min 33 sec) 
Heartbeat CPU 0 instructions: 90000003 cycles: 63079948 heartbeat IPC: 1.57746 cumulative IPC: 1.33662 (Simulation time: 0 hr 9 min 12 sec) 
Heartbeat CPU 0 instructions: 100000001 cycles: 69640326 heartbeat IPC: 1.5243 cumulative IPC: 1.35516 (Simulation time: 0 hr 9 min 57 sec) 
Heartbeat CPU 0 instructions: 110000000 cycles: 76339644 heartbeat IPC: 1.49269 cumulative IPC: 1.36776 (Simulation time: 0 hr 10 min 42 sec) 
Finished CPU 0 instructions: 100000000 cycles: 73112198 cumulative IPC: 1.36776 (Simulation time: 0 hr 10 min 42 sec) 

ChampSim completed all CPUs

Region of Interest Statistics

CPU 0 cumulative IPC: 1.36776 instructions: 100000000 cycles: 73112198
cpu0_DTLB TOTAL     ACCESS:   19637178  HIT:   18878486  MISS:     758692
cpu0_DTLB LOAD      ACCESS:   13784773  HIT:   13139060  MISS:     645713
cpu0_DTLB RFO       ACCESS:    5852405  HIT:    5739426  MISS:     112979
cpu0_DTLB PREFETCH  ACCESS:          0  HIT:          0  MISS:          0
cpu0_DTLB WRITEBACK ACCESS:          0  HIT:          0  MISS:          0
cpu0_DTLB TRANSLATION ACCESS:          0  HIT:          0  MISS:          0
cpu0_DTLB PREFETCH  REQUESTED:          0  ISSUED:          0  USEFUL:          0  USELESS:          0
cpu0_DTLB AVERAGE MISS LATENCY: 9.33056 cycles
cpu0_ITLB TOTAL     ACCESS:    6409753  HIT:    6409739  MISS:         14
cpu0_ITLB LOAD      ACCESS:    6409753  HIT:    6409739  MISS:         14
cpu0_ITLB RFO       ACCESS:          0  HIT:          0  MISS:          0
cpu0_ITLB PREFETCH  ACCESS:          0  HIT:          0  MISS:          0
cpu0_ITLB WRITEBACK ACCESS:          0  HIT:          0  MISS:          0
cpu0_ITLB TRANSLATION ACCESS:          0  HIT:          0  MISS:          0
cpu0_ITLB PREFETCH  REQUESTED:          0  ISSUED:          0  USEFUL:          0  USELESS:          0
cpu0_ITLB AVERAGE MISS LATENCY: 220.929 cycles
cpu0_L1I TOTAL     ACCESS:    2685580  HIT:    2685226  MISS:        354
cpu0_L1I LOAD      ACCESS:    2685580  HIT:    2685226  MISS:        354
cpu0_L1I RFO       ACCESS:          0  HIT:          0  MISS:          0
cpu0_L1I PREFETCH  ACCESS:          0  HIT:          0  MISS:          0
cpu0_L1I WRITEBACK ACCESS:          0  HIT:          0  MISS:          0
cpu0_L1I TRANSLATION ACCESS:          0  HIT:          0  MISS:          0
cpu0_L1I PREFETCH  REQUESTED:          0  ISSUED:          0  USEFUL:          0  USELESS:          0
cpu0_L1I AVERAGE MISS LATENCY: 165.706 cycles
cpu0_STLB TOTAL     ACCESS:     758706  HIT:     757624  MISS:       1082
cpu0_STLB LOAD      ACCESS:     645727  HIT:     644820  MISS:        907
cpu0_STLB RFO       ACCESS:     112979  HIT:     112804  MISS:        175
cpu0_STLB PREFETCH  ACCESS:          0  HIT:          0  MISS:          0
cpu0_STLB WRITEBACK ACCESS:          0  HIT:          0  MISS:          0
cpu0_STLB TRANSLATION ACCESS:          0  HIT:          0  MISS:          0
cpu0_STLB PREFETCH  REQUESTED:          0  ISSUED:          0  USEFUL:          0  USELESS:          0
cpu0_STLB AVERAGE MISS LATENCY: 203.929 cycles
cpu0_L1D TOTAL     ACCESS:   23552477  HIT:   21953516  MISS:    1598961
cpu0_L1D LOAD      ACCESS:   13781348  HIT:   12388351  MISS:    1392997
cpu0_L1D RFO       ACCESS:    9770061  HIT:    9564601  MISS:     205460
cpu0_L1D PREFETCH  ACCESS:          0  HIT:          0  MISS:          0
cpu0_L1D WRITEBACK ACCESS:          0  HIT:          0  MISS:          0
cpu0_L1D TRANSLATION ACCESS:       1068  HIT:        564  MISS:        504
cpu0_L1D PREFETCH  REQUESTED:          0  ISSUED:          0  USEFUL:          0  USELESS:          0
cpu0_L1D AVERAGE MISS LATENCY: 92.5273 cycles
cpu0_L2C TOTAL     ACCESS:    1813604  HIT:     913691  MISS:     899913
cpu0_L2C LOAD      ACCESS:    1393347  HIT:     651670  MISS:     741677
cpu0_L2C RFO       ACCESS:     205448  HIT:      47472  MISS:     157976
cpu0_L2C PREFETCH  ACCESS:          0  HIT:          0  MISS:          0
cpu0_L2C WRITEBACK ACCESS:     214305  HIT:     214066  MISS:        239
cpu0_L2C TRANSLATION ACCESS:        504  HIT:        483  MISS:         21
cpu0_L2C PREFETCH  REQUESTED:          0  ISSUED:          0  USEFUL:          0  USELESS:          0
cpu0_L2C AVERAGE MISS LATENCY: 144.78 cycles
LLC TOTAL     ACCESS:    1058771  HIT:     826962  MISS:     231809
LLC LOAD      ACCESS:     741677  HIT:     605459  MISS:     136218
LLC RFO       ACCESS:     157957  HIT:      83270  MISS:      74687
LLC PREFETCH  ACCESS:          0  HIT:          0  MISS:          0
LLC WRITEBACK ACCESS:     159116  HIT:     138219  MISS:      20897
LLC TRANSLATION ACCESS:         21  HIT:         14  MISS:          7
LLC PREFETCH  REQUESTED:          0  ISSUED:          0  USEFUL:          0  USELESS:          0
LLC AVERAGE MISS LATENCY: 480.541 cycles
OPTgen accesses: 14876
OPTgen hits: 12023
OPTgen hit rate: 80.8215



DRAM Statistics
 CHANNEL 0
 RQ ROW_BUFFER_HIT:      56740  ROW_BUFFER_MISS:     153857
 DBUS AVG_CONGESTED_CYCLE:    3.98427
 WQ ROW_BUFFER_HIT:       6858  ROW_BUFFER_MISS:      94144  FULL:        184


CPU 0 Branch Prediction Accuracy: 91.2056% MPKI: 12.1715 Average ROB Occupancy at Mispredict: 73.1917
Branch type MPKI
BRANCH_DIRECT_JUMP: 0.00059
BRANCH_INDIRECT: 0
BRANCH_CONDITIONAL: 12.1706
BRANCH_DIRECT_CALL: 0.00014
BRANCH_INDIRECT_CALL: 0
BRANCH_RETURN: 0.00019

