
*** ChampSim Multicore Out-of-Order Simulator ***

Warmup Instructions: 10000000
Simulation Instructions: 100000000
Number of CPUs: 1
Off-chip DRAM Size: 4 GiB Channels: 1 Width: 64-bit Data Rate: 3200 MT/s

VirtualMemory physical capacity: 8588881920 num_ppages: 2096895
VirtualMemory page size: 4096 log2_page_size: 12

CPU 0 runs /Users/raghavprasad/brandon/Homework2/traces/gcc_13B.trace.xz
CPU 0 Bimodal branch predictor
Basic BTB sets: 1024 ways: 8 indirect buffer size: 4096 RAS size: 64
Initialize Hawkeye state
Heartbeat CPU 0 instructions: 10000003 cycles: 2971459 heartbeat IPC: 3.36535 cumulative IPC: 3.36535 (Simulation time: 0 hr 0 min 56 sec) 

Warmup complete CPU 0 instructions: 10000003 cycles: 2971459 (Simulation time: 0 hr 0 min 56 sec) 

Heartbeat CPU 0 instructions: 20000003 cycles: 52690689 heartbeat IPC: 0.201129 cumulative IPC: 0.201129 (Simulation time: 0 hr 3 min 9 sec) 
Heartbeat CPU 0 instructions: 30000002 cycles: 105307738 heartbeat IPC: 0.190052 cumulative IPC: 0.195434 (Simulation time: 0 hr 5 min 38 sec) 
Heartbeat CPU 0 instructions: 40000004 cycles: 141067801 heartbeat IPC: 0.279642 cumulative IPC: 0.21724 (Simulation time: 0 hr 8 min 6 sec) 
Heartbeat CPU 0 instructions: 50000002 cycles: 159174394 heartbeat IPC: 0.552285 cumulative IPC: 0.256077 (Simulation time: 0 hr 8 min 50 sec) 
Heartbeat CPU 0 instructions: 60000003 cycles: 177166718 heartbeat IPC: 0.555793 cumulative IPC: 0.287034 (Simulation time: 0 hr 9 min 33 sec) 
Heartbeat CPU 0 instructions: 70000000 cycles: 193896208 heartbeat IPC: 0.597747 cumulative IPC: 0.31426 (Simulation time: 0 hr 10 min 13 sec) 
Heartbeat CPU 0 instructions: 80000002 cycles: 210933192 heartbeat IPC: 0.586958 cumulative IPC: 0.3366 (Simulation time: 0 hr 10 min 51 sec) 
Heartbeat CPU 0 instructions: 90000000 cycles: 229037702 heartbeat IPC: 0.552348 cumulative IPC: 0.353879 (Simulation time: 0 hr 11 min 31 sec) 
Heartbeat CPU 0 instructions: 100000000 cycles: 246830970 heartbeat IPC: 0.56201 cumulative IPC: 0.369065 (Simulation time: 0 hr 12 min 10 sec) 
Heartbeat CPU 0 instructions: 110000002 cycles: 270557663 heartbeat IPC: 0.421466 cumulative IPC: 0.373711 (Simulation time: 0 hr 12 min 58 sec) 
Finished CPU 0 instructions: 100000004 cycles: 267586205 cumulative IPC: 0.373711 (Simulation time: 0 hr 12 min 58 sec) 

ChampSim completed all CPUs

Region of Interest Statistics

CPU 0 cumulative IPC: 0.373711 instructions: 100000004 cycles: 267586205
cpu0_DTLB TOTAL     ACCESS:   19456385  HIT:   19354195  MISS:     102190
cpu0_DTLB LOAD      ACCESS:   14020013  HIT:   13932915  MISS:      87098
cpu0_DTLB RFO       ACCESS:    5436372  HIT:    5421280  MISS:      15092
cpu0_DTLB PREFETCH  ACCESS:          0  HIT:          0  MISS:          0
cpu0_DTLB WRITEBACK ACCESS:          0  HIT:          0  MISS:          0
cpu0_DTLB TRANSLATION ACCESS:          0  HIT:          0  MISS:          0
cpu0_DTLB PREFETCH  REQUESTED:          0  ISSUED:          0  USEFUL:          0  USELESS:          0
cpu0_DTLB AVERAGE MISS LATENCY: 27.3855 cycles
cpu0_ITLB TOTAL     ACCESS:   10352969  HIT:   10352908  MISS:         61
cpu0_ITLB LOAD      ACCESS:   10352969  HIT:   10352908  MISS:         61
cpu0_ITLB RFO       ACCESS:          0  HIT:          0  MISS:          0
cpu0_ITLB PREFETCH  ACCESS:          0  HIT:          0  MISS:          0
cpu0_ITLB WRITEBACK ACCESS:          0  HIT:          0  MISS:          0
cpu0_ITLB TRANSLATION ACCESS:          0  HIT:          0  MISS:          0
cpu0_ITLB PREFETCH  REQUESTED:          0  ISSUED:          0  USEFUL:          0  USELESS:          0
cpu0_ITLB AVERAGE MISS LATENCY: 143.836 cycles
cpu0_L1I TOTAL     ACCESS:    6565304  HIT:    6564932  MISS:        372
cpu0_L1I LOAD      ACCESS:    6565304  HIT:    6564932  MISS:        372
cpu0_L1I RFO       ACCESS:          0  HIT:          0  MISS:          0
cpu0_L1I PREFETCH  ACCESS:          0  HIT:          0  MISS:          0
cpu0_L1I WRITEBACK ACCESS:          0  HIT:          0  MISS:          0
cpu0_L1I TRANSLATION ACCESS:          0  HIT:          0  MISS:          0
cpu0_L1I PREFETCH  REQUESTED:          0  ISSUED:          0  USEFUL:          0  USELESS:          0
cpu0_L1I AVERAGE MISS LATENCY: 172.156 cycles
cpu0_STLB TOTAL     ACCESS:     102251  HIT:      33351  MISS:      68900
cpu0_STLB LOAD      ACCESS:      87159  HIT:      30269  MISS:      56890
cpu0_STLB RFO       ACCESS:      15092  HIT:       3082  MISS:      12010
cpu0_STLB PREFETCH  ACCESS:          0  HIT:          0  MISS:          0
cpu0_STLB WRITEBACK ACCESS:          0  HIT:          0  MISS:          0
cpu0_STLB TRANSLATION ACCESS:          0  HIT:          0  MISS:          0
cpu0_STLB PREFETCH  REQUESTED:          0  ISSUED:          0  USEFUL:          0  USELESS:          0
cpu0_STLB AVERAGE MISS LATENCY: 27.3819 cycles
cpu0_L1D TOTAL     ACCESS:   26272214  HIT:   24728460  MISS:    1543754
cpu0_L1D LOAD      ACCESS:   12782661  HIT:   11516213  MISS:    1266448
cpu0_L1D RFO       ACCESS:   13420851  HIT:   13144617  MISS:     276234
cpu0_L1D PREFETCH  ACCESS:          0  HIT:          0  MISS:          0
cpu0_L1D WRITEBACK ACCESS:          0  HIT:          0  MISS:          0
cpu0_L1D TRANSLATION ACCESS:      68702  HIT:      67630  MISS:       1072
cpu0_L1D PREFETCH  REQUESTED:          0  ISSUED:          0  USEFUL:          0  USELESS:          0
cpu0_L1D AVERAGE MISS LATENCY: 256.956 cycles
cpu0_L2C TOTAL     ACCESS:    1957250  HIT:     462478  MISS:    1494772
cpu0_L2C LOAD      ACCESS:    1266820  HIT:      46689  MISS:    1220131
cpu0_L2C RFO       ACCESS:     276234  HIT:       1818  MISS:     274416
cpu0_L2C PREFETCH  ACCESS:          0  HIT:          0  MISS:          0
cpu0_L2C WRITEBACK ACCESS:     413124  HIT:     413077  MISS:         47
cpu0_L2C TRANSLATION ACCESS:       1072  HIT:        894  MISS:        178
cpu0_L2C PREFETCH  REQUESTED:          0  ISSUED:          0  USEFUL:          0  USELESS:          0
cpu0_L2C AVERAGE MISS LATENCY: 254.023 cycles
LLC TOTAL     ACCESS:    1905479  HIT:     289177  MISS:    1616302
LLC LOAD      ACCESS:    1220131  HIT:     157464  MISS:    1062667
LLC RFO       ACCESS:     274416  HIT:      28457  MISS:     245959
LLC PREFETCH  ACCESS:          0  HIT:          0  MISS:          0
LLC WRITEBACK ACCESS:     410754  HIT:     103148  MISS:     307606
LLC TRANSLATION ACCESS:        178  HIT:        108  MISS:         70
LLC PREFETCH  REQUESTED:          0  ISSUED:          0  USEFUL:          0  USELESS:          0
LLC AVERAGE MISS LATENCY: 215.502 cycles
OPTgen accesses: 30642
OPTgen hits: 5184
OPTgen hit rate: 16.918



DRAM Statistics
 CHANNEL 0
 RQ ROW_BUFFER_HIT:     208964  ROW_BUFFER_MISS:    1099660
 DBUS AVG_CONGESTED_CYCLE:    3.93801
 WQ ROW_BUFFER_HIT:      43762  ROW_BUFFER_MISS:     347787  FULL:      22705


CPU 0 Branch Prediction Accuracy: 87.437% MPKI: 28.6507 Average ROB Occupancy at Mispredict: 19.8754
Branch type MPKI
BRANCH_DIRECT_JUMP: 0.0008
BRANCH_INDIRECT: 0.00403
BRANCH_CONDITIONAL: 28.6428
BRANCH_DIRECT_CALL: 0.00114
BRANCH_INDIRECT_CALL: 0.0008
BRANCH_RETURN: 0.00114

