
*** ChampSim Multicore Out-of-Order Simulator ***

Warmup Instructions: 10000000
Simulation Instructions: 100000000
Number of CPUs: 1
Off-chip DRAM Size: 4 GiB Channels: 1 Width: 64-bit Data Rate: 3200 MT/s

VirtualMemory physical capacity: 8588881920 num_ppages: 2096895
VirtualMemory page size: 4096 log2_page_size: 12

CPU 0 runs /Users/raghavprasad/brandon/Homework2/traces/GemsFDTD_716B.trace.xz
CPU 0 Bimodal branch predictor
Basic BTB sets: 1024 ways: 8 indirect buffer size: 4096 RAS size: 64
Initialize Hawkeye state
Heartbeat CPU 0 instructions: 10000004 cycles: 2536390 heartbeat IPC: 3.94261 cumulative IPC: 3.94261 (Simulation time: 0 hr 0 min 38 sec) 

Warmup complete CPU 0 instructions: 10000004 cycles: 2536390 (Simulation time: 0 hr 0 min 38 sec) 

Heartbeat CPU 0 instructions: 20000003 cycles: 24485101 heartbeat IPC: 0.455608 cumulative IPC: 0.455608 (Simulation time: 0 hr 3 min 40 sec) 
Heartbeat CPU 0 instructions: 30000002 cycles: 38239806 heartbeat IPC: 0.727024 cumulative IPC: 0.56017 (Simulation time: 0 hr 5 min 54 sec) 
Heartbeat CPU 0 instructions: 40000000 cycles: 49659052 heartbeat IPC: 0.875714 cumulative IPC: 0.636636 (Simulation time: 0 hr 7 min 56 sec) 
Heartbeat CPU 0 instructions: 50000002 cycles: 67647399 heartbeat IPC: 0.555916 cumulative IPC: 0.614335 (Simulation time: 0 hr 10 min 37 sec) 
Heartbeat CPU 0 instructions: 60000002 cycles: 83435428 heartbeat IPC: 0.633391 cumulative IPC: 0.618054 (Simulation time: 0 hr 13 min 3 sec) 
Heartbeat CPU 0 instructions: 70000004 cycles: 95588187 heartbeat IPC: 0.822859 cumulative IPC: 0.644802 (Simulation time: 0 hr 15 min 11 sec) 
Heartbeat CPU 0 instructions: 80000003 cycles: 109945123 heartbeat IPC: 0.696527 cumulative IPC: 0.651716 (Simulation time: 0 hr 17 min 29 sec) 
Heartbeat CPU 0 instructions: 90000001 cycles: 128532116 heartbeat IPC: 0.538011 cumulative IPC: 0.634942 (Simulation time: 0 hr 20 min 6 sec) 
Heartbeat CPU 0 instructions: 100000001 cycles: 141510152 heartbeat IPC: 0.770533 cumulative IPC: 0.647604 (Simulation time: 0 hr 22 min 17 sec) 
Heartbeat CPU 0 instructions: 110000004 cycles: 153133479 heartbeat IPC: 0.860339 cumulative IPC: 0.664023 (Simulation time: 0 hr 24 min 17 sec) 
Finished CPU 0 instructions: 100000000 cycles: 150597089 cumulative IPC: 0.664023 (Simulation time: 0 hr 24 min 17 sec) 

ChampSim completed all CPUs

Region of Interest Statistics

CPU 0 cumulative IPC: 0.664023 instructions: 100000000 cycles: 150597089
cpu0_DTLB TOTAL     ACCESS:   29895776  HIT:   26865889  MISS:    3029887
cpu0_DTLB LOAD      ACCESS:   20921474  HIT:   17892441  MISS:    3029033
cpu0_DTLB RFO       ACCESS:    8974302  HIT:    8973448  MISS:        854
cpu0_DTLB PREFETCH  ACCESS:          0  HIT:          0  MISS:          0
cpu0_DTLB WRITEBACK ACCESS:          0  HIT:          0  MISS:          0
cpu0_DTLB TRANSLATION ACCESS:          0  HIT:          0  MISS:          0
cpu0_DTLB PREFETCH  REQUESTED:          0  ISSUED:          0  USEFUL:          0  USELESS:          0
cpu0_DTLB AVERAGE MISS LATENCY: 13.8514 cycles
cpu0_ITLB TOTAL     ACCESS:    1847137  HIT:    1847135  MISS:          2
cpu0_ITLB LOAD      ACCESS:    1847137  HIT:    1847135  MISS:          2
cpu0_ITLB RFO       ACCESS:          0  HIT:          0  MISS:          0
cpu0_ITLB PREFETCH  ACCESS:          0  HIT:          0  MISS:          0
cpu0_ITLB WRITEBACK ACCESS:          0  HIT:          0  MISS:          0
cpu0_ITLB TRANSLATION ACCESS:          0  HIT:          0  MISS:          0
cpu0_ITLB PREFETCH  REQUESTED:          0  ISSUED:          0  USEFUL:          0  USELESS:          0
cpu0_ITLB AVERAGE MISS LATENCY: 412.5 cycles
cpu0_L1I TOTAL     ACCESS:    7855051  HIT:    7854929  MISS:        122
cpu0_L1I LOAD      ACCESS:    7855051  HIT:    7854929  MISS:        122
cpu0_L1I RFO       ACCESS:          0  HIT:          0  MISS:          0
cpu0_L1I PREFETCH  ACCESS:          0  HIT:          0  MISS:          0
cpu0_L1I WRITEBACK ACCESS:          0  HIT:          0  MISS:          0
cpu0_L1I TRANSLATION ACCESS:          0  HIT:          0  MISS:          0
cpu0_L1I PREFETCH  REQUESTED:          0  ISSUED:          0  USEFUL:          0  USELESS:          0
cpu0_L1I AVERAGE MISS LATENCY: 271.082 cycles
cpu0_STLB TOTAL     ACCESS:    3029889  HIT:    2757447  MISS:     272442
cpu0_STLB LOAD      ACCESS:    3029035  HIT:    2756593  MISS:     272442
cpu0_STLB RFO       ACCESS:        854  HIT:        854  MISS:          0
cpu0_STLB PREFETCH  ACCESS:          0  HIT:          0  MISS:          0
cpu0_STLB WRITEBACK ACCESS:          0  HIT:          0  MISS:          0
cpu0_STLB TRANSLATION ACCESS:          0  HIT:          0  MISS:          0
cpu0_STLB PREFETCH  REQUESTED:          0  ISSUED:          0  USEFUL:          0  USELESS:          0
cpu0_STLB AVERAGE MISS LATENCY: 51.5639 cycles
cpu0_L1D TOTAL     ACCESS:   34798948  HIT:   26556141  MISS:    8242807
cpu0_L1D LOAD      ACCESS:   22663563  HIT:   14444364  MISS:    8219199
cpu0_L1D RFO       ACCESS:   11868314  HIT:   11868308  MISS:          6
cpu0_L1D PREFETCH  ACCESS:          0  HIT:          0  MISS:          0
cpu0_L1D WRITEBACK ACCESS:          0  HIT:          0  MISS:          0
cpu0_L1D TRANSLATION ACCESS:     267071  HIT:     243469  MISS:      23602
cpu0_L1D PREFETCH  REQUESTED:          0  ISSUED:          0  USEFUL:          0  USELESS:          0
cpu0_L1D AVERAGE MISS LATENCY: 68.6946 cycles
cpu0_L2C TOTAL     ACCESS:    9425513  HIT:    7946711  MISS:    1478802
cpu0_L2C LOAD      ACCESS:    8219321  HIT:    6741019  MISS:    1478302
cpu0_L2C RFO       ACCESS:          6  HIT:          6  MISS:          0
cpu0_L2C PREFETCH  ACCESS:          0  HIT:          0  MISS:          0
cpu0_L2C WRITEBACK ACCESS:    1182584  HIT:    1182527  MISS:         57
cpu0_L2C TRANSLATION ACCESS:      23602  HIT:      23159  MISS:        443
cpu0_L2C PREFETCH  REQUESTED:          0  ISSUED:          0  USEFUL:          0  USELESS:          0
cpu0_L2C AVERAGE MISS LATENCY: 319.672 cycles
LLC TOTAL     ACCESS:    1506310  HIT:      84029  MISS:    1422281
LLC LOAD      ACCESS:    1478231  HIT:      57997  MISS:    1420234
LLC RFO       ACCESS:          0  HIT:          0  MISS:          0
LLC PREFETCH  ACCESS:          0  HIT:          0  MISS:          0
LLC WRITEBACK ACCESS:      27636  HIT:      25869  MISS:       1767
LLC TRANSLATION ACCESS:        443  HIT:        163  MISS:        280
LLC PREFETCH  REQUESTED:          0  ISSUED:          0  USEFUL:          0  USELESS:          0
LLC AVERAGE MISS LATENCY: 310.543 cycles
OPTgen accesses: 24480
OPTgen hits: 1907
OPTgen hit rate: 7.79003



DRAM Statistics
 CHANNEL 0
 RQ ROW_BUFFER_HIT:         54  ROW_BUFFER_MISS:    1420422
 DBUS AVG_CONGESTED_CYCLE:    3.94858
 WQ ROW_BUFFER_HIT:        880  ROW_BUFFER_MISS:       7369  FULL:          0


CPU 0 Branch Prediction Accuracy: 98.9038% MPKI: 0.06477 Average ROB Occupancy at Mispredict: 248.724
Branch type MPKI
BRANCH_DIRECT_JUMP: 0
BRANCH_INDIRECT: 0
BRANCH_CONDITIONAL: 0.06477
BRANCH_DIRECT_CALL: 0
BRANCH_INDIRECT_CALL: 0
BRANCH_RETURN: 0

