
*** ChampSim Multicore Out-of-Order Simulator ***

Warmup Instructions: 10000000
Simulation Instructions: 100000000
Number of CPUs: 1
Off-chip DRAM Size: 4 GiB Channels: 1 Width: 64-bit Data Rate: 3200 MT/s

VirtualMemory physical capacity: 8588881920 num_ppages: 2096895
VirtualMemory page size: 4096 log2_page_size: 12

CPU 0 runs /Users/raghavprasad/brandon/Homework2/traces/gobmk_135B.trace.xz
CPU 0 Bimodal branch predictor
Basic BTB sets: 1024 ways: 8 indirect buffer size: 4096 RAS size: 64
Initialize Hawkeye state
Heartbeat CPU 0 instructions: 10000003 cycles: 2549277 heartbeat IPC: 3.92268 cumulative IPC: 3.92268 (Simulation time: 0 hr 0 min 41 sec) 

Warmup complete CPU 0 instructions: 10000003 cycles: 2549277 (Simulation time: 0 hr 0 min 41 sec) 

Heartbeat CPU 0 instructions: 20000000 cycles: 14303004 heartbeat IPC: 0.850794 cumulative IPC: 0.850794 (Simulation time: 0 hr 1 min 14 sec) 
Heartbeat CPU 0 instructions: 30000004 cycles: 25670851 heartbeat IPC: 0.879674 cumulative IPC: 0.864993 (Simulation time: 0 hr 1 min 50 sec) 
Heartbeat CPU 0 instructions: 40000003 cycles: 36544464 heartbeat IPC: 0.919657 cumulative IPC: 0.882478 (Simulation time: 0 hr 2 min 25 sec) 
Heartbeat CPU 0 instructions: 50000004 cycles: 47781581 heartbeat IPC: 0.889908 cumulative IPC: 0.884324 (Simulation time: 0 hr 3 min 1 sec) 
Heartbeat CPU 0 instructions: 60000003 cycles: 59064269 heartbeat IPC: 0.886313 cumulative IPC: 0.884721 (Simulation time: 0 hr 3 min 36 sec) 
Heartbeat CPU 0 instructions: 70000000 cycles: 70100352 heartbeat IPC: 0.906118 cumulative IPC: 0.888217 (Simulation time: 0 hr 4 min 11 sec) 
Heartbeat CPU 0 instructions: 80000004 cycles: 81700290 heartbeat IPC: 0.862074 cumulative IPC: 0.884385 (Simulation time: 0 hr 4 min 46 sec) 
Heartbeat CPU 0 instructions: 90000004 cycles: 92896773 heartbeat IPC: 0.893138 cumulative IPC: 0.88547 (Simulation time: 0 hr 5 min 22 sec) 
Heartbeat CPU 0 instructions: 100000003 cycles: 104395865 heartbeat IPC: 0.869634 cumulative IPC: 0.883682 (Simulation time: 0 hr 5 min 58 sec) 
Heartbeat CPU 0 instructions: 110000002 cycles: 115890067 heartbeat IPC: 0.870004 cumulative IPC: 0.882295 (Simulation time: 0 hr 6 min 33 sec) 
Finished CPU 0 instructions: 100000004 cycles: 113340791 cumulative IPC: 0.882295 (Simulation time: 0 hr 6 min 33 sec) 

ChampSim completed all CPUs

Region of Interest Statistics

CPU 0 cumulative IPC: 0.882295 instructions: 100000004 cycles: 113340791
cpu0_DTLB TOTAL     ACCESS:   21502372  HIT:   21376187  MISS:     126185
cpu0_DTLB LOAD      ACCESS:   14899469  HIT:   14792294  MISS:     107175
cpu0_DTLB RFO       ACCESS:    6602903  HIT:    6583893  MISS:      19010
cpu0_DTLB PREFETCH  ACCESS:          0  HIT:          0  MISS:          0
cpu0_DTLB WRITEBACK ACCESS:          0  HIT:          0  MISS:          0
cpu0_DTLB TRANSLATION ACCESS:          0  HIT:          0  MISS:          0
cpu0_DTLB PREFETCH  REQUESTED:          0  ISSUED:          0  USEFUL:          0  USELESS:          0
cpu0_DTLB AVERAGE MISS LATENCY: 11.2709 cycles
cpu0_ITLB TOTAL     ACCESS:    9266913  HIT:    9264472  MISS:       2441
cpu0_ITLB LOAD      ACCESS:    9266913  HIT:    9264472  MISS:       2441
cpu0_ITLB RFO       ACCESS:          0  HIT:          0  MISS:          0
cpu0_ITLB PREFETCH  ACCESS:          0  HIT:          0  MISS:          0
cpu0_ITLB WRITEBACK ACCESS:          0  HIT:          0  MISS:          0
cpu0_ITLB TRANSLATION ACCESS:          0  HIT:          0  MISS:          0
cpu0_ITLB PREFETCH  REQUESTED:          0  ISSUED:          0  USEFUL:          0  USELESS:          0
cpu0_ITLB AVERAGE MISS LATENCY: 10.7476 cycles
cpu0_L1I TOTAL     ACCESS:    7388552  HIT:    7078774  MISS:     309778
cpu0_L1I LOAD      ACCESS:    7388552  HIT:    7078774  MISS:     309778
cpu0_L1I RFO       ACCESS:          0  HIT:          0  MISS:          0
cpu0_L1I PREFETCH  ACCESS:          0  HIT:          0  MISS:          0
cpu0_L1I WRITEBACK ACCESS:          0  HIT:          0  MISS:          0
cpu0_L1I TRANSLATION ACCESS:          0  HIT:          0  MISS:          0
cpu0_L1I PREFETCH  REQUESTED:          0  ISSUED:          0  USEFUL:          0  USELESS:          0
cpu0_L1I AVERAGE MISS LATENCY: 12.9372 cycles
cpu0_STLB TOTAL     ACCESS:     128626  HIT:     123298  MISS:       5328
cpu0_STLB LOAD      ACCESS:     109616  HIT:     104522  MISS:       5094
cpu0_STLB RFO       ACCESS:      19010  HIT:      18776  MISS:        234
cpu0_STLB PREFETCH  ACCESS:          0  HIT:          0  MISS:          0
cpu0_STLB WRITEBACK ACCESS:          0  HIT:          0  MISS:          0
cpu0_STLB TRANSLATION ACCESS:          0  HIT:          0  MISS:          0
cpu0_STLB PREFETCH  REQUESTED:          0  ISSUED:          0  USEFUL:          0  USELESS:          0
cpu0_STLB AVERAGE MISS LATENCY: 54.516 cycles
cpu0_L1D TOTAL     ACCESS:   26582146  HIT:   26122957  MISS:     459189
cpu0_L1D LOAD      ACCESS:   14809711  HIT:   14500392  MISS:     309319
cpu0_L1D RFO       ACCESS:   11767113  HIT:   11617895  MISS:     149218
cpu0_L1D PREFETCH  ACCESS:          0  HIT:          0  MISS:          0
cpu0_L1D WRITEBACK ACCESS:          0  HIT:          0  MISS:          0
cpu0_L1D TRANSLATION ACCESS:       5322  HIT:       4670  MISS:        652
cpu0_L1D PREFETCH  REQUESTED:          0  ISSUED:          0  USEFUL:          0  USELESS:          0
cpu0_L1D AVERAGE MISS LATENCY: 27.7121 cycles
cpu0_L2C TOTAL     ACCESS:     984509  HIT:     811229  MISS:     173280
cpu0_L2C LOAD      ACCESS:     619095  HIT:     483520  MISS:     135575
cpu0_L2C RFO       ACCESS:     149207  HIT:     111705  MISS:      37502
cpu0_L2C PREFETCH  ACCESS:          0  HIT:          0  MISS:          0
cpu0_L2C WRITEBACK ACCESS:     215555  HIT:     215407  MISS:        148
cpu0_L2C TRANSLATION ACCESS:        652  HIT:        597  MISS:         55
cpu0_L2C PREFETCH  REQUESTED:          0  ISSUED:          0  USEFUL:          0  USELESS:          0
cpu0_L2C AVERAGE MISS LATENCY: 47.555 cycles
LLC TOTAL     ACCESS:     252462  HIT:     223727  MISS:      28735
LLC LOAD      ACCESS:     135575  HIT:     112775  MISS:      22800
LLC RFO       ACCESS:      37500  HIT:      33133  MISS:       4367
LLC PREFETCH  ACCESS:          0  HIT:          0  MISS:          0
LLC WRITEBACK ACCESS:      79332  HIT:      77767  MISS:       1565
LLC TRANSLATION ACCESS:         55  HIT:         52  MISS:          3
LLC PREFETCH  REQUESTED:          0  ISSUED:          0  USEFUL:          0  USELESS:          0
LLC AVERAGE MISS LATENCY: 160.243 cycles
OPTgen accesses: 3050
OPTgen hits: 2401
OPTgen hit rate: 78.7213



DRAM Statistics
 CHANNEL 0
 RQ ROW_BUFFER_HIT:       4248  ROW_BUFFER_MISS:      22921
 DBUS AVG_CONGESTED_CYCLE:    3.83098
 WQ ROW_BUFFER_HIT:       1851  ROW_BUFFER_MISS:       6664  FULL:          0


CPU 0 Branch Prediction Accuracy: 87.3602% MPKI: 24.4764 Average ROB Occupancy at Mispredict: 16.8341
Branch type MPKI
BRANCH_DIRECT_JUMP: 0.00393
BRANCH_INDIRECT: 2e-05
BRANCH_CONDITIONAL: 24.4297
BRANCH_DIRECT_CALL: 0.00715
BRANCH_INDIRECT_CALL: 0.03275
BRANCH_RETURN: 0.00288

