
*** ChampSim Multicore Out-of-Order Simulator ***

Warmup Instructions: 10000000
Simulation Instructions: 100000000
Number of CPUs: 1
Off-chip DRAM Size: 4 GiB Channels: 1 Width: 64-bit Data Rate: 3200 MT/s

VirtualMemory physical capacity: 8588881920 num_ppages: 2096895
VirtualMemory page size: 4096 log2_page_size: 12

CPU 0 runs /Users/raghavprasad/brandon/Homework2/traces/mcf_250B.trace.xz
CPU 0 Bimodal branch predictor
Basic BTB sets: 1024 ways: 8 indirect buffer size: 4096 RAS size: 64
Initialize Hawkeye state
Heartbeat CPU 0 instructions: 10000001 cycles: 3834280 heartbeat IPC: 2.60805 cumulative IPC: 2.60805 (Simulation time: 0 hr 1 min 12 sec) 

Warmup complete CPU 0 instructions: 10000001 cycles: 3834280 (Simulation time: 0 hr 1 min 12 sec) 

Heartbeat CPU 0 instructions: 20000000 cycles: 149703571 heartbeat IPC: 0.0685545 cumulative IPC: 0.0685545 (Simulation time: 0 hr 5 min 2 sec) 
Heartbeat CPU 0 instructions: 30000000 cycles: 288215166 heartbeat IPC: 0.0721961 cumulative IPC: 0.0703282 (Simulation time: 0 hr 8 min 39 sec) 
Heartbeat CPU 0 instructions: 40000000 cycles: 437470574 heartbeat IPC: 0.0669992 cumulative IPC: 0.0691824 (Simulation time: 0 hr 12 min 30 sec) 
Heartbeat CPU 0 instructions: 50000000 cycles: 579087188 heartbeat IPC: 0.0706132 cumulative IPC: 0.0695346 (Simulation time: 0 hr 16 min 20 sec) 
Heartbeat CPU 0 instructions: 60000000 cycles: 720399290 heartbeat IPC: 0.0707653 cumulative IPC: 0.0697773 (Simulation time: 0 hr 20 min 14 sec) 
Heartbeat CPU 0 instructions: 70000000 cycles: 854408329 heartbeat IPC: 0.0746218 cumulative IPC: 0.0705406 (Simulation time: 0 hr 24 min 1 sec) 
Heartbeat CPU 0 instructions: 80000000 cycles: 1000244256 heartbeat IPC: 0.0685702 cumulative IPC: 0.0702522 (Simulation time: 0 hr 28 min 5 sec) 
Heartbeat CPU 0 instructions: 90000000 cycles: 1126085229 heartbeat IPC: 0.0794654 cumulative IPC: 0.0712853 (Simulation time: 0 hr 31 min 42 sec) 
Heartbeat CPU 0 instructions: 100000000 cycles: 1267495748 heartbeat IPC: 0.0707161 cumulative IPC: 0.0712216 (Simulation time: 0 hr 35 min 36 sec) 
Heartbeat CPU 0 instructions: 110000000 cycles: 1411186851 heartbeat IPC: 0.0695937 cumulative IPC: 0.0710554 (Simulation time: 0 hr 39 min 36 sec) 
Finished CPU 0 instructions: 100000000 cycles: 1407352572 cumulative IPC: 0.0710554 (Simulation time: 0 hr 39 min 36 sec) 

ChampSim completed all CPUs

Region of Interest Statistics

CPU 0 cumulative IPC: 0.0710554 instructions: 100000000 cycles: 1407352572
cpu0_DTLB TOTAL     ACCESS:   20766460  HIT:    2976077  MISS:   17790383
cpu0_DTLB LOAD      ACCESS:   20271501  HIT:    2536999  MISS:   17734502
cpu0_DTLB RFO       ACCESS:     494959  HIT:     439078  MISS:      55881
cpu0_DTLB PREFETCH  ACCESS:          0  HIT:          0  MISS:          0
cpu0_DTLB WRITEBACK ACCESS:          0  HIT:          0  MISS:          0
cpu0_DTLB TRANSLATION ACCESS:          0  HIT:          0  MISS:          0
cpu0_DTLB PREFETCH  REQUESTED:          0  ISSUED:          0  USEFUL:          0  USELESS:          0
cpu0_DTLB AVERAGE MISS LATENCY: 11.8285 cycles
cpu0_ITLB TOTAL     ACCESS:   11315163  HIT:   11315163  MISS:          0
cpu0_ITLB LOAD      ACCESS:   11315163  HIT:   11315163  MISS:          0
cpu0_ITLB RFO       ACCESS:          0  HIT:          0  MISS:          0
cpu0_ITLB PREFETCH  ACCESS:          0  HIT:          0  MISS:          0
cpu0_ITLB WRITEBACK ACCESS:          0  HIT:          0  MISS:          0
cpu0_ITLB TRANSLATION ACCESS:          0  HIT:          0  MISS:          0
cpu0_ITLB PREFETCH  REQUESTED:          0  ISSUED:          0  USEFUL:          0  USELESS:          0
cpu0_ITLB AVERAGE MISS LATENCY: nan cycles
cpu0_L1I TOTAL     ACCESS:          4  HIT:          4  MISS:          0
cpu0_L1I LOAD      ACCESS:          4  HIT:          4  MISS:          0
cpu0_L1I RFO       ACCESS:          0  HIT:          0  MISS:          0
cpu0_L1I PREFETCH  ACCESS:          0  HIT:          0  MISS:          0
cpu0_L1I WRITEBACK ACCESS:          0  HIT:          0  MISS:          0
cpu0_L1I TRANSLATION ACCESS:          0  HIT:          0  MISS:          0
cpu0_L1I PREFETCH  REQUESTED:          0  ISSUED:          0  USEFUL:          0  USELESS:          0
cpu0_L1I AVERAGE MISS LATENCY: nan cycles
cpu0_STLB TOTAL     ACCESS:   17790383  HIT:   17413255  MISS:     377128
cpu0_STLB LOAD      ACCESS:   17734502  HIT:   17359511  MISS:     374991
cpu0_STLB RFO       ACCESS:      55881  HIT:      53744  MISS:       2137
cpu0_STLB PREFETCH  ACCESS:          0  HIT:          0  MISS:          0
cpu0_STLB WRITEBACK ACCESS:          0  HIT:          0  MISS:          0
cpu0_STLB TRANSLATION ACCESS:          0  HIT:          0  MISS:          0
cpu0_STLB PREFETCH  REQUESTED:          0  ISSUED:          0  USEFUL:          0  USELESS:          0
cpu0_STLB AVERAGE MISS LATENCY: 133.4 cycles
cpu0_L1D TOTAL     ACCESS:   21384124  HIT:    3440587  MISS:   17943537
cpu0_L1D LOAD      ACCESS:   20343425  HIT:    2559629  MISS:   17783796
cpu0_L1D RFO       ACCESS:     664708  HIT:     633052  MISS:      31656
cpu0_L1D PREFETCH  ACCESS:          0  HIT:          0  MISS:          0
cpu0_L1D WRITEBACK ACCESS:          0  HIT:          0  MISS:          0
cpu0_L1D TRANSLATION ACCESS:     375991  HIT:     247906  MISS:     128085
cpu0_L1D PREFETCH  REQUESTED:          0  ISSUED:          0  USEFUL:          0  USELESS:          0
cpu0_L1D AVERAGE MISS LATENCY: 231.478 cycles
cpu0_L2C TOTAL     ACCESS:   18302182  HIT:    5809815  MISS:   12492367
cpu0_L2C LOAD      ACCESS:   17783768  HIT:    5401254  MISS:   12382514
cpu0_L2C RFO       ACCESS:      31655  HIT:       9254  MISS:      22401
cpu0_L2C PREFETCH  ACCESS:          0  HIT:          0  MISS:          0
cpu0_L2C WRITEBACK ACCESS:     358674  HIT:     358666  MISS:          8
cpu0_L2C TRANSLATION ACCESS:     128085  HIT:      40641  MISS:      87444
cpu0_L2C PREFETCH  REQUESTED:          0  ISSUED:          0  USEFUL:          0  USELESS:          0
cpu0_L2C AVERAGE MISS LATENCY: 316.674 cycles
LLC TOTAL     ACCESS:   12782953  HIT:    5687399  MISS:    7095554
LLC LOAD      ACCESS:   12382514  HIT:    5500019  MISS:    6882495
LLC RFO       ACCESS:      22401  HIT:      10530  MISS:      11871
LLC PREFETCH  ACCESS:          0  HIT:          0  MISS:          0
LLC WRITEBACK ACCESS:     290594  HIT:     161195  MISS:     129399
LLC TRANSLATION ACCESS:      87444  HIT:      15655  MISS:      71789
LLC PREFETCH  REQUESTED:          0  ISSUED:          0  USEFUL:          0  USELESS:          0
LLC AVERAGE MISS LATENCY: 520.561 cycles
OPTgen accesses: 218183
OPTgen hits: 101402
OPTgen hit rate: 46.4757



DRAM Statistics
 CHANNEL 0
 RQ ROW_BUFFER_HIT:      29100  ROW_BUFFER_MISS:    6936838
 DBUS AVG_CONGESTED_CYCLE:    3.96425
 WQ ROW_BUFFER_HIT:      10354  ROW_BUFFER_MISS:     224513  FULL:          0


CPU 0 Branch Prediction Accuracy: 91.6559% MPKI: 25.5287 Average ROB Occupancy at Mispredict: 24.4635
Branch type MPKI
BRANCH_DIRECT_JUMP: 2e-05
BRANCH_INDIRECT: 0
BRANCH_CONDITIONAL: 25.5287
BRANCH_DIRECT_CALL: 0
BRANCH_INDIRECT_CALL: 0
BRANCH_RETURN: 0

