
*** ChampSim Multicore Out-of-Order Simulator ***

Warmup Instructions: 10000000
Simulation Instructions: 100000000
Number of CPUs: 1
Off-chip DRAM Size: 4 GiB Channels: 1 Width: 64-bit Data Rate: 3200 MT/s

VirtualMemory physical capacity: 8588881920 num_ppages: 2096895
VirtualMemory page size: 4096 log2_page_size: 12

CPU 0 runs /Users/raghavprasad/brandon/Homework2/traces/milc_744B.trace.xz
CPU 0 Bimodal branch predictor
Basic BTB sets: 1024 ways: 8 indirect buffer size: 4096 RAS size: 64
Initialize Hawkeye state
Heartbeat CPU 0 instructions: 10000000 cycles: 2597395 heartbeat IPC: 3.85001 cumulative IPC: 3.85001 (Simulation time: 0 hr 0 min 49 sec) 

Warmup complete CPU 0 instructions: 10000005 cycles: 2597401 (Simulation time: 0 hr 0 min 49 sec) 

Heartbeat CPU 0 instructions: 20000003 cycles: 16299880 heartbeat IPC: 0.729795 cumulative IPC: 0.729795 (Simulation time: 0 hr 2 min 9 sec) 
Heartbeat CPU 0 instructions: 30000000 cycles: 30177403 heartbeat IPC: 0.720589 cumulative IPC: 0.725163 (Simulation time: 0 hr 3 min 33 sec) 
Heartbeat CPU 0 instructions: 40000002 cycles: 43964842 heartbeat IPC: 0.725298 cumulative IPC: 0.725208 (Simulation time: 0 hr 4 min 55 sec) 
Heartbeat CPU 0 instructions: 50000000 cycles: 57708872 heartbeat IPC: 0.727588 cumulative IPC: 0.725802 (Simulation time: 0 hr 6 min 16 sec) 
Heartbeat CPU 0 instructions: 60000000 cycles: 71460553 heartbeat IPC: 0.727184 cumulative IPC: 0.726078 (Simulation time: 0 hr 7 min 38 sec) 
Heartbeat CPU 0 instructions: 70000004 cycles: 85207358 heartbeat IPC: 0.727442 cumulative IPC: 0.726305 (Simulation time: 0 hr 8 min 59 sec) 
Heartbeat CPU 0 instructions: 80000003 cycles: 98899495 heartbeat IPC: 0.730346 cumulative IPC: 0.726879 (Simulation time: 0 hr 10 min 20 sec) 
Heartbeat CPU 0 instructions: 90000002 cycles: 112612148 heartbeat IPC: 0.729253 cumulative IPC: 0.727175 (Simulation time: 0 hr 11 min 42 sec) 
Heartbeat CPU 0 instructions: 100000002 cycles: 146721737 heartbeat IPC: 0.293173 cumulative IPC: 0.624461 (Simulation time: 0 hr 20 min 48 sec) 
Heartbeat CPU 0 instructions: 110000004 cycles: 157057722 heartbeat IPC: 0.967494 cumulative IPC: 0.647415 (Simulation time: 0 hr 21 min 59 sec) 
Finished CPU 0 instructions: 100000004 cycles: 154460322 cumulative IPC: 0.647415 (Simulation time: 0 hr 21 min 59 sec) 

ChampSim completed all CPUs

Region of Interest Statistics

CPU 0 cumulative IPC: 0.647415 instructions: 100000004 cycles: 154460322
cpu0_DTLB TOTAL     ACCESS:   13559642  HIT:   13424857  MISS:     134785
cpu0_DTLB LOAD      ACCESS:   10517714  HIT:   10389556  MISS:     128158
cpu0_DTLB RFO       ACCESS:    3041928  HIT:    3035301  MISS:       6627
cpu0_DTLB PREFETCH  ACCESS:          0  HIT:          0  MISS:          0
cpu0_DTLB WRITEBACK ACCESS:          0  HIT:          0  MISS:          0
cpu0_DTLB TRANSLATION ACCESS:          0  HIT:          0  MISS:          0
cpu0_DTLB PREFETCH  REQUESTED:          0  ISSUED:          0  USEFUL:          0  USELESS:          0
cpu0_DTLB AVERAGE MISS LATENCY: 147.945 cycles
cpu0_ITLB TOTAL     ACCESS:    8135546  HIT:    8135541  MISS:          5
cpu0_ITLB LOAD      ACCESS:    8135546  HIT:    8135541  MISS:          5
cpu0_ITLB RFO       ACCESS:          0  HIT:          0  MISS:          0
cpu0_ITLB PREFETCH  ACCESS:          0  HIT:          0  MISS:          0
cpu0_ITLB WRITEBACK ACCESS:          0  HIT:          0  MISS:          0
cpu0_ITLB TRANSLATION ACCESS:          0  HIT:          0  MISS:          0
cpu0_ITLB PREFETCH  REQUESTED:          0  ISSUED:          0  USEFUL:          0  USELESS:          0
cpu0_ITLB AVERAGE MISS LATENCY: 219.2 cycles
cpu0_L1I TOTAL     ACCESS:     365359  HIT:     365312  MISS:         47
cpu0_L1I LOAD      ACCESS:     365359  HIT:     365312  MISS:         47
cpu0_L1I RFO       ACCESS:          0  HIT:          0  MISS:          0
cpu0_L1I PREFETCH  ACCESS:          0  HIT:          0  MISS:          0
cpu0_L1I WRITEBACK ACCESS:          0  HIT:          0  MISS:          0
cpu0_L1I TRANSLATION ACCESS:          0  HIT:          0  MISS:          0
cpu0_L1I PREFETCH  REQUESTED:          0  ISSUED:          0  USEFUL:          0  USELESS:          0
cpu0_L1I AVERAGE MISS LATENCY: 302.426 cycles
cpu0_STLB TOTAL     ACCESS:     134790  HIT:       2589  MISS:     132201
cpu0_STLB LOAD      ACCESS:     128163  HIT:       2579  MISS:     125584
cpu0_STLB RFO       ACCESS:       6627  HIT:         10  MISS:       6617
cpu0_STLB PREFETCH  ACCESS:          0  HIT:          0  MISS:          0
cpu0_STLB WRITEBACK ACCESS:          0  HIT:          0  MISS:          0
cpu0_STLB TRANSLATION ACCESS:          0  HIT:          0  MISS:          0
cpu0_STLB PREFETCH  REQUESTED:          0  ISSUED:          0  USEFUL:          0  USELESS:          0
cpu0_STLB AVERAGE MISS LATENCY: 141.658 cycles
cpu0_L1D TOTAL     ACCESS:   13087709  HIT:   11342772  MISS:    1744937
cpu0_L1D LOAD      ACCESS:    6799151  HIT:    5477898  MISS:    1321253
cpu0_L1D RFO       ACCESS:    6157629  HIT:    5734329  MISS:     423300
cpu0_L1D PREFETCH  ACCESS:          0  HIT:          0  MISS:          0
cpu0_L1D WRITEBACK ACCESS:          0  HIT:          0  MISS:          0
cpu0_L1D TRANSLATION ACCESS:     130929  HIT:     130545  MISS:        384
cpu0_L1D PREFETCH  REQUESTED:          0  ISSUED:          0  USEFUL:          0  USELESS:          0
cpu0_L1D AVERAGE MISS LATENCY: 417.646 cycles
cpu0_L2C TOTAL     ACCESS:    2446394  HIT:     701424  MISS:    1744970
cpu0_L2C LOAD      ACCESS:    1321300  HIT:          0  MISS:    1321300
cpu0_L2C RFO       ACCESS:     423300  HIT:          0  MISS:     423300
cpu0_L2C PREFETCH  ACCESS:          0  HIT:          0  MISS:          0
cpu0_L2C WRITEBACK ACCESS:     701410  HIT:     701404  MISS:          6
cpu0_L2C TRANSLATION ACCESS:        384  HIT:         20  MISS:        364
cpu0_L2C PREFETCH  REQUESTED:          0  ISSUED:          0  USEFUL:          0  USELESS:          0
cpu0_L2C AVERAGE MISS LATENCY: 406.579 cycles
LLC TOTAL     ACCESS:    2446212  HIT:      65916  MISS:    2380296
LLC LOAD      ACCESS:    1321300  HIT:       1229  MISS:    1320071
LLC RFO       ACCESS:     423300  HIT:       1745  MISS:     421555
LLC PREFETCH  ACCESS:          0  HIT:          0  MISS:          0
LLC WRITEBACK ACCESS:     701248  HIT:      62835  MISS:     638413
LLC TRANSLATION ACCESS:        364  HIT:        107  MISS:        257
LLC PREFETCH  REQUESTED:          0  ISSUED:          0  USEFUL:          0  USELESS:          0
LLC AVERAGE MISS LATENCY: 282.664 cycles
OPTgen accesses: 29230
OPTgen hits: 663
OPTgen hit rate: 2.26822



DRAM Statistics
 CHANNEL 0
 RQ ROW_BUFFER_HIT:     187202  ROW_BUFFER_MISS:    1554676
 DBUS AVG_CONGESTED_CYCLE:    3.95668
 WQ ROW_BUFFER_HIT:      80234  ROW_BUFFER_MISS:     620361  FULL:          0


CPU 0 Branch Prediction Accuracy: 77.9348% MPKI: 4.47835 Average ROB Occupancy at Mispredict: 303.343
Branch type MPKI
BRANCH_DIRECT_JUMP: 5e-05
BRANCH_INDIRECT: 0
BRANCH_CONDITIONAL: 4.47814
BRANCH_DIRECT_CALL: 8e-05
BRANCH_INDIRECT_CALL: 0
BRANCH_RETURN: 8e-05

