
*** ChampSim Multicore Out-of-Order Simulator ***

Warmup Instructions: 10000000
Simulation Instructions: 100000000
Number of CPUs: 1
Off-chip DRAM Size: 4 GiB Channels: 1 Width: 64-bit Data Rate: 3200 MT/s

VirtualMemory physical capacity: 8588881920 num_ppages: 2096895
VirtualMemory page size: 4096 log2_page_size: 12

CPU 0 runs /Users/raghavprasad/brandon/Homework2/traces/sphinx3_883B.trace.xz
CPU 0 Bimodal branch predictor
Basic BTB sets: 1024 ways: 8 indirect buffer size: 4096 RAS size: 64
Initialize Hawkeye state
Heartbeat CPU 0 instructions: 10000003 cycles: 2628875 heartbeat IPC: 3.80391 cumulative IPC: 3.80391 (Simulation time: 0 hr 0 min 43 sec) 

Warmup complete CPU 0 instructions: 10000003 cycles: 2628875 (Simulation time: 0 hr 0 min 43 sec) 

Heartbeat CPU 0 instructions: 20000000 cycles: 15529559 heartbeat IPC: 0.775152 cumulative IPC: 0.775152 (Simulation time: 0 hr 2 min 8 sec) 
Heartbeat CPU 0 instructions: 30000001 cycles: 28330456 heartbeat IPC: 0.781195 cumulative IPC: 0.778162 (Simulation time: 0 hr 3 min 31 sec) 
Heartbeat CPU 0 instructions: 40000004 cycles: 40435724 heartbeat IPC: 0.826087 cumulative IPC: 0.793507 (Simulation time: 0 hr 4 min 53 sec) 
Heartbeat CPU 0 instructions: 50000003 cycles: 52357688 heartbeat IPC: 0.838788 cumulative IPC: 0.804363 (Simulation time: 0 hr 6 min 13 sec) 
Heartbeat CPU 0 instructions: 60000000 cycles: 63653836 heartbeat IPC: 0.885257 cumulative IPC: 0.819337 (Simulation time: 0 hr 7 min 38 sec) 
Heartbeat CPU 0 instructions: 70000002 cycles: 73142688 heartbeat IPC: 1.05387 cumulative IPC: 0.850897 (Simulation time: 0 hr 8 min 48 sec) 
Heartbeat CPU 0 instructions: 80000000 cycles: 83521859 heartbeat IPC: 0.963468 cumulative IPC: 0.865341 (Simulation time: 0 hr 10 min 0 sec) 
Heartbeat CPU 0 instructions: 90000002 cycles: 92796880 heartbeat IPC: 1.07816 cumulative IPC: 0.887233 (Simulation time: 0 hr 11 min 8 sec) 
Heartbeat CPU 0 instructions: 100000003 cycles: 101247204 heartbeat IPC: 1.18339 cumulative IPC: 0.912609 (Simulation time: 0 hr 12 min 12 sec) 
Heartbeat CPU 0 instructions: 110000003 cycles: 111690326 heartbeat IPC: 0.957568 cumulative IPC: 0.916914 (Simulation time: 0 hr 13 min 23 sec) 
Finished CPU 0 instructions: 100000000 cycles: 109061451 cumulative IPC: 0.916914 (Simulation time: 0 hr 13 min 23 sec) 

ChampSim completed all CPUs

Region of Interest Statistics

CPU 0 cumulative IPC: 0.916914 instructions: 100000000 cycles: 109061451
cpu0_DTLB TOTAL     ACCESS:   16809561  HIT:   16649639  MISS:     159922
cpu0_DTLB LOAD      ACCESS:   15453456  HIT:   15301782  MISS:     151674
cpu0_DTLB RFO       ACCESS:    1356105  HIT:    1347857  MISS:       8248
cpu0_DTLB PREFETCH  ACCESS:          0  HIT:          0  MISS:          0
cpu0_DTLB WRITEBACK ACCESS:          0  HIT:          0  MISS:          0
cpu0_DTLB TRANSLATION ACCESS:          0  HIT:          0  MISS:          0
cpu0_DTLB PREFETCH  REQUESTED:          0  ISSUED:          0  USEFUL:          0  USELESS:          0
cpu0_DTLB AVERAGE MISS LATENCY: 12.8059 cycles
cpu0_ITLB TOTAL     ACCESS:    9400138  HIT:    9400073  MISS:         65
cpu0_ITLB LOAD      ACCESS:    9400138  HIT:    9400073  MISS:         65
cpu0_ITLB RFO       ACCESS:          0  HIT:          0  MISS:          0
cpu0_ITLB PREFETCH  ACCESS:          0  HIT:          0  MISS:          0
cpu0_ITLB WRITEBACK ACCESS:          0  HIT:          0  MISS:          0
cpu0_ITLB TRANSLATION ACCESS:          0  HIT:          0  MISS:          0
cpu0_ITLB PREFETCH  REQUESTED:          0  ISSUED:          0  USEFUL:          0  USELESS:          0
cpu0_ITLB AVERAGE MISS LATENCY: 147.415 cycles
cpu0_L1I TOTAL     ACCESS:     192826  HIT:     191446  MISS:       1380
cpu0_L1I LOAD      ACCESS:     192826  HIT:     191446  MISS:       1380
cpu0_L1I RFO       ACCESS:          0  HIT:          0  MISS:          0
cpu0_L1I PREFETCH  ACCESS:          0  HIT:          0  MISS:          0
cpu0_L1I WRITEBACK ACCESS:          0  HIT:          0  MISS:          0
cpu0_L1I TRANSLATION ACCESS:          0  HIT:          0  MISS:          0
cpu0_L1I PREFETCH  REQUESTED:          0  ISSUED:          0  USEFUL:          0  USELESS:          0
cpu0_L1I AVERAGE MISS LATENCY: 182.567 cycles
cpu0_STLB TOTAL     ACCESS:     159987  HIT:      99088  MISS:      60899
cpu0_STLB LOAD      ACCESS:     151739  HIT:      92075  MISS:      59664
cpu0_STLB RFO       ACCESS:       8248  HIT:       7013  MISS:       1235
cpu0_STLB PREFETCH  ACCESS:          0  HIT:          0  MISS:          0
cpu0_STLB WRITEBACK ACCESS:          0  HIT:          0  MISS:          0
cpu0_STLB TRANSLATION ACCESS:          0  HIT:          0  MISS:          0
cpu0_STLB PREFETCH  REQUESTED:          0  ISSUED:          0  USEFUL:          0  USELESS:          0
cpu0_STLB AVERAGE MISS LATENCY: 10.0161 cycles
cpu0_L1D TOTAL     ACCESS:   12445617  HIT:   10696320  MISS:    1749297
cpu0_L1D LOAD      ACCESS:   10177919  HIT:    8543553  MISS:    1634366
cpu0_L1D RFO       ACCESS:    2209523  HIT:    2095387  MISS:     114136
cpu0_L1D PREFETCH  ACCESS:          0  HIT:          0  MISS:          0
cpu0_L1D WRITEBACK ACCESS:          0  HIT:          0  MISS:          0
cpu0_L1D TRANSLATION ACCESS:      58175  HIT:      57380  MISS:        795
cpu0_L1D PREFETCH  REQUESTED:          0  ISSUED:          0  USEFUL:          0  USELESS:          0
cpu0_L1D AVERAGE MISS LATENCY: 128.086 cycles
cpu0_L2C TOTAL     ACCESS:    1908265  HIT:     511150  MISS:    1397115
cpu0_L2C LOAD      ACCESS:    1635743  HIT:     341948  MISS:    1293795
cpu0_L2C RFO       ACCESS:     114131  HIT:      11246  MISS:     102885
cpu0_L2C PREFETCH  ACCESS:          0  HIT:          0  MISS:          0
cpu0_L2C WRITEBACK ACCESS:     157596  HIT:     157351  MISS:        245
cpu0_L2C TRANSLATION ACCESS:        795  HIT:        605  MISS:        190
cpu0_L2C PREFETCH  REQUESTED:          0  ISSUED:          0  USEFUL:          0  USELESS:          0
cpu0_L2C AVERAGE MISS LATENCY: 146.713 cycles
LLC TOTAL     ACCESS:    1531192  HIT:     663488  MISS:     867704
LLC LOAD      ACCESS:    1293793  HIT:     497686  MISS:     796107
LLC RFO       ACCESS:     102885  HIT:      65409  MISS:      37476
LLC PREFETCH  ACCESS:          0  HIT:          0  MISS:          0
LLC WRITEBACK ACCESS:     134324  HIT:     100246  MISS:      34078
LLC TRANSLATION ACCESS:        190  HIT:        147  MISS:         43
LLC PREFETCH  REQUESTED:          0  ISSUED:          0  USEFUL:          0  USELESS:          0
LLC AVERAGE MISS LATENCY: 202.418 cycles
OPTgen accesses: 24039
OPTgen hits: 11905
OPTgen hit rate: 49.5237



DRAM Statistics
 CHANNEL 0
 RQ ROW_BUFFER_HIT:      80212  ROW_BUFFER_MISS:     753278
 DBUS AVG_CONGESTED_CYCLE:    3.85396
 WQ ROW_BUFFER_HIT:      10460  ROW_BUFFER_MISS:      41844  FULL:        192


CPU 0 Branch Prediction Accuracy: 91.645% MPKI: 7.87682 Average ROB Occupancy at Mispredict: 160.772
Branch type MPKI
BRANCH_DIRECT_JUMP: 0.0017
BRANCH_INDIRECT: 0.00111
BRANCH_CONDITIONAL: 7.87013
BRANCH_DIRECT_CALL: 0.00166
BRANCH_INDIRECT_CALL: 0.0005
BRANCH_RETURN: 0.00172

