
*** ChampSim Multicore Out-of-Order Simulator ***

Warmup Instructions: 10000000
Simulation Instructions: 100000000
Number of CPUs: 1
Off-chip DRAM Size: 4 GiB Channels: 1 Width: 64-bit Data Rate: 3200 MT/s

VirtualMemory physical capacity: 8588881920 num_ppages: 2096895
VirtualMemory page size: 4096 log2_page_size: 12

CPU 0 runs /Users/raghavprasad/brandon/Homework2/traces/wrf_1228B.trace.xz
CPU 0 Bimodal branch predictor
Basic BTB sets: 1024 ways: 8 indirect buffer size: 4096 RAS size: 64
Initialize Hawkeye state
Heartbeat CPU 0 instructions: 10000001 cycles: 3904457 heartbeat IPC: 2.56118 cumulative IPC: 2.56118 (Simulation time: 0 hr 1 min 17 sec) 

Warmup complete CPU 0 instructions: 10000001 cycles: 3904457 (Simulation time: 0 hr 1 min 17 sec) 

Heartbeat CPU 0 instructions: 20000001 cycles: 12244070 heartbeat IPC: 1.1991 cumulative IPC: 1.1991 (Simulation time: 0 hr 2 min 57 sec) 
Heartbeat CPU 0 instructions: 30000004 cycles: 23589141 heartbeat IPC: 0.88144 cumulative IPC: 1.01602 (Simulation time: 0 hr 5 min 3 sec) 
Heartbeat CPU 0 instructions: 40000000 cycles: 36756673 heartbeat IPC: 0.759443 cumulative IPC: 0.91318 (Simulation time: 0 hr 7 min 28 sec) 
Heartbeat CPU 0 instructions: 50000001 cycles: 44561615 heartbeat IPC: 1.28124 cumulative IPC: 0.983837 (Simulation time: 0 hr 9 min 4 sec) 
Heartbeat CPU 0 instructions: 60000003 cycles: 53950930 heartbeat IPC: 1.06504 cumulative IPC: 0.999071 (Simulation time: 0 hr 10 min 55 sec) 
Heartbeat CPU 0 instructions: 70000001 cycles: 65233775 heartbeat IPC: 0.886301 cumulative IPC: 0.978325 (Simulation time: 0 hr 12 min 37 sec) 
Heartbeat CPU 0 instructions: 80000004 cycles: 74943518 heartbeat IPC: 1.02989 cumulative IPC: 0.985373 (Simulation time: 0 hr 13 min 56 sec) 
Heartbeat CPU 0 instructions: 90000001 cycles: 84628513 heartbeat IPC: 1.03252 cumulative IPC: 0.99103 (Simulation time: 0 hr 15 min 13 sec) 
Heartbeat CPU 0 instructions: 100000002 cycles: 94306853 heartbeat IPC: 1.03324 cumulative IPC: 0.995549 (Simulation time: 0 hr 16 min 30 sec) 
Heartbeat CPU 0 instructions: 110000000 cycles: 103977016 heartbeat IPC: 1.03411 cumulative IPC: 0.999275 (Simulation time: 0 hr 17 min 47 sec) 
Finished CPU 0 instructions: 100000004 cycles: 100072560 cumulative IPC: 0.999275 (Simulation time: 0 hr 17 min 47 sec) 

ChampSim completed all CPUs

Region of Interest Statistics

CPU 0 cumulative IPC: 0.999275 instructions: 100000004 cycles: 100072560
cpu0_DTLB TOTAL     ACCESS:   19677956  HIT:   19581720  MISS:      96236
cpu0_DTLB LOAD      ACCESS:   17656971  HIT:   17575043  MISS:      81928
cpu0_DTLB RFO       ACCESS:    2020985  HIT:    2006677  MISS:      14308
cpu0_DTLB PREFETCH  ACCESS:          0  HIT:          0  MISS:          0
cpu0_DTLB WRITEBACK ACCESS:          0  HIT:          0  MISS:          0
cpu0_DTLB TRANSLATION ACCESS:          0  HIT:          0  MISS:          0
cpu0_DTLB PREFETCH  REQUESTED:          0  ISSUED:          0  USEFUL:          0  USELESS:          0
cpu0_DTLB AVERAGE MISS LATENCY: 20.0126 cycles
cpu0_ITLB TOTAL     ACCESS:    4203360  HIT:    4203348  MISS:         12
cpu0_ITLB LOAD      ACCESS:    4203360  HIT:    4203348  MISS:         12
cpu0_ITLB RFO       ACCESS:          0  HIT:          0  MISS:          0
cpu0_ITLB PREFETCH  ACCESS:          0  HIT:          0  MISS:          0
cpu0_ITLB WRITEBACK ACCESS:          0  HIT:          0  MISS:          0
cpu0_ITLB TRANSLATION ACCESS:          0  HIT:          0  MISS:          0
cpu0_ITLB PREFETCH  REQUESTED:          0  ISSUED:          0  USEFUL:          0  USELESS:          0
cpu0_ITLB AVERAGE MISS LATENCY: 246 cycles
cpu0_L1I TOTAL     ACCESS:    6680597  HIT:    6679849  MISS:        748
cpu0_L1I LOAD      ACCESS:    6680597  HIT:    6679849  MISS:        748
cpu0_L1I RFO       ACCESS:          0  HIT:          0  MISS:          0
cpu0_L1I PREFETCH  ACCESS:          0  HIT:          0  MISS:          0
cpu0_L1I WRITEBACK ACCESS:          0  HIT:          0  MISS:          0
cpu0_L1I TRANSLATION ACCESS:          0  HIT:          0  MISS:          0
cpu0_L1I PREFETCH  REQUESTED:          0  ISSUED:          0  USEFUL:          0  USELESS:          0
cpu0_L1I AVERAGE MISS LATENCY: 354.743 cycles
cpu0_STLB TOTAL     ACCESS:      96248  HIT:      86694  MISS:       9554
cpu0_STLB LOAD      ACCESS:      81940  HIT:      75032  MISS:       6908
cpu0_STLB RFO       ACCESS:      14308  HIT:      11662  MISS:       2646
cpu0_STLB PREFETCH  ACCESS:          0  HIT:          0  MISS:          0
cpu0_STLB WRITEBACK ACCESS:          0  HIT:          0  MISS:          0
cpu0_STLB TRANSLATION ACCESS:          0  HIT:          0  MISS:          0
cpu0_STLB PREFETCH  REQUESTED:          0  ISSUED:          0  USEFUL:          0  USELESS:          0
cpu0_STLB AVERAGE MISS LATENCY: 111.206 cycles
cpu0_L1D TOTAL     ACCESS:   18876866  HIT:   17518480  MISS:    1358386
cpu0_L1D LOAD      ACCESS:   14823816  HIT:   13724759  MISS:    1099057
cpu0_L1D RFO       ACCESS:    4043506  HIT:    3784961  MISS:     258545
cpu0_L1D PREFETCH  ACCESS:          0  HIT:          0  MISS:          0
cpu0_L1D WRITEBACK ACCESS:          0  HIT:          0  MISS:          0
cpu0_L1D TRANSLATION ACCESS:       9544  HIT:       8760  MISS:        784
cpu0_L1D PREFETCH  REQUESTED:          0  ISSUED:          0  USEFUL:          0  USELESS:          0
cpu0_L1D AVERAGE MISS LATENCY: 203.089 cycles
cpu0_L2C TOTAL     ACCESS:    1836337  HIT:     802591  MISS:    1033746
cpu0_L2C LOAD      ACCESS:    1099775  HIT:     286966  MISS:     812809
cpu0_L2C RFO       ACCESS:     258541  HIT:      39525  MISS:     219016
cpu0_L2C PREFETCH  ACCESS:          0  HIT:          0  MISS:          0
cpu0_L2C WRITEBACK ACCESS:     477237  HIT:     475425  MISS:       1812
cpu0_L2C TRANSLATION ACCESS:        784  HIT:        675  MISS:        109
cpu0_L2C PREFETCH  REQUESTED:          0  ISSUED:          0  USEFUL:          0  USELESS:          0
cpu0_L2C AVERAGE MISS LATENCY: 252.64 cycles
LLC TOTAL     ACCESS:    1464228  HIT:     499098  MISS:     965130
LLC LOAD      ACCESS:     812809  HIT:     182437  MISS:     630372
LLC RFO       ACCESS:     219016  HIT:      47497  MISS:     171519
LLC PREFETCH  ACCESS:          0  HIT:          0  MISS:          0
LLC WRITEBACK ACCESS:     432294  HIT:     269110  MISS:     163184
LLC TRANSLATION ACCESS:        109  HIT:         54  MISS:         55
LLC PREFETCH  REQUESTED:          0  ISSUED:          0  USEFUL:          0  USELESS:          0
LLC AVERAGE MISS LATENCY: 248.146 cycles
OPTgen accesses: 20331
OPTgen hits: 5892
OPTgen hit rate: 28.9804



DRAM Statistics
 CHANNEL 0
 RQ ROW_BUFFER_HIT:      99662  ROW_BUFFER_MISS:     701819
 DBUS AVG_CONGESTED_CYCLE:    3.92578
 WQ ROW_BUFFER_HIT:      26213  ROW_BUFFER_MISS:     259795  FULL:          0


CPU 0 Branch Prediction Accuracy: 97.4481% MPKI: 2.04611 Average ROB Occupancy at Mispredict: 259.434
Branch type MPKI
BRANCH_DIRECT_JUMP: 0.00028
BRANCH_INDIRECT: 0
BRANCH_CONDITIONAL: 2.0456
BRANCH_DIRECT_CALL: 0.00011
BRANCH_INDIRECT_CALL: 0
BRANCH_RETURN: 0.00012

