
*** ChampSim Multicore Out-of-Order Simulator ***

Warmup Instructions: 10000000
Simulation Instructions: 100000000
Number of CPUs: 1
Off-chip DRAM Size: 4 GiB Channels: 1 Width: 64-bit Data Rate: 3200 MT/s

VirtualMemory physical capacity: 8588881920 num_ppages: 2096895
VirtualMemory page size: 4096 log2_page_size: 12

CPU 0 runs /Users/raghavprasad/brandon/Homework2/traces/zeusmp_100B.trace.xz
CPU 0 Bimodal branch predictor
Basic BTB sets: 1024 ways: 8 indirect buffer size: 4096 RAS size: 64
Initialize Hawkeye state
Heartbeat CPU 0 instructions: 10000000 cycles: 2533557 heartbeat IPC: 3.94702 cumulative IPC: 3.94702 (Simulation time: 0 hr 0 min 35 sec) 

Warmup complete CPU 0 instructions: 10000004 cycles: 2533558 (Simulation time: 0 hr 0 min 35 sec) 

Heartbeat CPU 0 instructions: 20000003 cycles: 8014689 heartbeat IPC: 1.82444 cumulative IPC: 1.82444 (Simulation time: 0 hr 1 min 43 sec) 
Heartbeat CPU 0 instructions: 30000000 cycles: 13936793 heartbeat IPC: 1.68859 cumulative IPC: 1.75389 (Simulation time: 0 hr 2 min 55 sec) 
Heartbeat CPU 0 instructions: 40000004 cycles: 19851096 heartbeat IPC: 1.69082 cumulative IPC: 1.73235 (Simulation time: 0 hr 4 min 8 sec) 
Heartbeat CPU 0 instructions: 50000001 cycles: 25740716 heartbeat IPC: 1.6979 cumulative IPC: 1.72361 (Simulation time: 0 hr 5 min 20 sec) 
Heartbeat CPU 0 instructions: 60000004 cycles: 31657931 heartbeat IPC: 1.68998 cumulative IPC: 1.71678 (Simulation time: 0 hr 6 min 33 sec) 
Heartbeat CPU 0 instructions: 70000001 cycles: 37538858 heartbeat IPC: 1.70041 cumulative IPC: 1.71403 (Simulation time: 0 hr 7 min 45 sec) 
Heartbeat CPU 0 instructions: 80000001 cycles: 43452146 heartbeat IPC: 1.69111 cumulative IPC: 1.71071 (Simulation time: 0 hr 8 min 57 sec) 
Heartbeat CPU 0 instructions: 90000000 cycles: 49365783 heartbeat IPC: 1.69101 cumulative IPC: 1.70823 (Simulation time: 0 hr 10 min 9 sec) 
Heartbeat CPU 0 instructions: 100000000 cycles: 55254960 heartbeat IPC: 1.69803 cumulative IPC: 1.70709 (Simulation time: 0 hr 11 min 21 sec) 
Heartbeat CPU 0 instructions: 110000003 cycles: 61174125 heartbeat IPC: 1.68943 cumulative IPC: 1.7053 (Simulation time: 0 hr 12 min 33 sec) 
Finished CPU 0 instructions: 100000004 cycles: 58640568 cumulative IPC: 1.7053 (Simulation time: 0 hr 12 min 33 sec) 

ChampSim completed all CPUs

Region of Interest Statistics

CPU 0 cumulative IPC: 1.7053 instructions: 100000004 cycles: 58640568
cpu0_DTLB TOTAL     ACCESS:   16445110  HIT:   12280637  MISS:    4164473
cpu0_DTLB LOAD      ACCESS:   11966501  HIT:    9309160  MISS:    2657341
cpu0_DTLB RFO       ACCESS:    4478609  HIT:    2971477  MISS:    1507132
cpu0_DTLB PREFETCH  ACCESS:          0  HIT:          0  MISS:          0
cpu0_DTLB WRITEBACK ACCESS:          0  HIT:          0  MISS:          0
cpu0_DTLB TRANSLATION ACCESS:          0  HIT:          0  MISS:          0
cpu0_DTLB PREFETCH  REQUESTED:          0  ISSUED:          0  USEFUL:          0  USELESS:          0
cpu0_DTLB AVERAGE MISS LATENCY: 10.4065 cycles
cpu0_ITLB TOTAL     ACCESS:    2227416  HIT:    2227415  MISS:          1
cpu0_ITLB LOAD      ACCESS:    2227416  HIT:    2227415  MISS:          1
cpu0_ITLB RFO       ACCESS:          0  HIT:          0  MISS:          0
cpu0_ITLB PREFETCH  ACCESS:          0  HIT:          0  MISS:          0
cpu0_ITLB WRITEBACK ACCESS:          0  HIT:          0  MISS:          0
cpu0_ITLB TRANSLATION ACCESS:          0  HIT:          0  MISS:          0
cpu0_ITLB PREFETCH  REQUESTED:          0  ISSUED:          0  USEFUL:          0  USELESS:          0
cpu0_ITLB AVERAGE MISS LATENCY: 249 cycles
cpu0_L1I TOTAL     ACCESS:    3117545  HIT:    3117494  MISS:         51
cpu0_L1I LOAD      ACCESS:    3117545  HIT:    3117494  MISS:         51
cpu0_L1I RFO       ACCESS:          0  HIT:          0  MISS:          0
cpu0_L1I PREFETCH  ACCESS:          0  HIT:          0  MISS:          0
cpu0_L1I WRITEBACK ACCESS:          0  HIT:          0  MISS:          0
cpu0_L1I TRANSLATION ACCESS:          0  HIT:          0  MISS:          0
cpu0_L1I PREFETCH  REQUESTED:          0  ISSUED:          0  USEFUL:          0  USELESS:          0
cpu0_L1I AVERAGE MISS LATENCY: 347.941 cycles
cpu0_STLB TOTAL     ACCESS:    4164474  HIT:    4156035  MISS:       8439
cpu0_STLB LOAD      ACCESS:    2657342  HIT:    2652179  MISS:       5163
cpu0_STLB RFO       ACCESS:    1507132  HIT:    1503856  MISS:       3276
cpu0_STLB PREFETCH  ACCESS:          0  HIT:          0  MISS:          0
cpu0_STLB WRITEBACK ACCESS:          0  HIT:          0  MISS:          0
cpu0_STLB TRANSLATION ACCESS:          0  HIT:          0  MISS:          0
cpu0_STLB PREFETCH  REQUESTED:          0  ISSUED:          0  USEFUL:          0  USELESS:          0
cpu0_STLB AVERAGE MISS LATENCY: 557.177 cycles
cpu0_L1D TOTAL     ACCESS:   19021190  HIT:   13986492  MISS:    5034698
cpu0_L1D LOAD      ACCESS:   12125966  HIT:    8891110  MISS:    3234856
cpu0_L1D RFO       ACCESS:    6886892  HIT:    5094747  MISS:    1792145
cpu0_L1D PREFETCH  ACCESS:          0  HIT:          0  MISS:          0
cpu0_L1D WRITEBACK ACCESS:          0  HIT:          0  MISS:          0
cpu0_L1D TRANSLATION ACCESS:       8332  HIT:        635  MISS:       7697
cpu0_L1D PREFETCH  REQUESTED:          0  ISSUED:          0  USEFUL:          0  USELESS:          0
cpu0_L1D AVERAGE MISS LATENCY: 86.3725 cycles
cpu0_L2C TOTAL     ACCESS:    6855412  HIT:    6266670  MISS:     588742
cpu0_L2C LOAD      ACCESS:    3234632  HIT:    2839444  MISS:     395188
cpu0_L2C RFO       ACCESS:    1790651  HIT:    1597389  MISS:     193262
cpu0_L2C PREFETCH  ACCESS:          0  HIT:          0  MISS:          0
cpu0_L2C WRITEBACK ACCESS:    1822432  HIT:    1822150  MISS:        282
cpu0_L2C TRANSLATION ACCESS:       7697  HIT:       7687  MISS:         10
cpu0_L2C PREFETCH  REQUESTED:          0  ISSUED:          0  USEFUL:          0  USELESS:          0
cpu0_L2C AVERAGE MISS LATENCY: 643.7 cycles
LLC TOTAL     ACCESS:     781815  HIT:     105427  MISS:     676388
LLC LOAD      ACCESS:     395188  HIT:      89472  MISS:     305716
LLC RFO       ACCESS:     193262  HIT:          0  MISS:     193262
LLC PREFETCH  ACCESS:          0  HIT:          0  MISS:          0
LLC WRITEBACK ACCESS:     193355  HIT:      15948  MISS:     177407
LLC TRANSLATION ACCESS:         10  HIT:          7  MISS:          3
LLC PREFETCH  REQUESTED:          0  ISSUED:          0  USEFUL:          0  USELESS:          0
LLC AVERAGE MISS LATENCY: 542.02 cycles
OPTgen accesses: 9827
OPTgen hits: 1577
OPTgen hit rate: 16.0476



DRAM Statistics
 CHANNEL 0
 RQ ROW_BUFFER_HIT:         82  ROW_BUFFER_MISS:     498899
 DBUS AVG_CONGESTED_CYCLE:    3.99926
 WQ ROW_BUFFER_HIT:        316  ROW_BUFFER_MISS:     193634  FULL:          0


CPU 0 Branch Prediction Accuracy: 99.0158% MPKI: 0.52371 Average ROB Occupancy at Mispredict: 235.801
Branch type MPKI
BRANCH_DIRECT_JUMP: 1e-05
BRANCH_INDIRECT: 0
BRANCH_CONDITIONAL: 0.5237
BRANCH_DIRECT_CALL: 0
BRANCH_INDIRECT_CALL: 0
BRANCH_RETURN: 0

