
*** ChampSim Multicore Out-of-Order Simulator ***

Warmup Instructions: 10000000
Simulation Instructions: 100000000
Number of CPUs: 1
Off-chip DRAM Size: 4 GiB Channels: 1 Width: 64-bit Data Rate: 3200 MT/s

VirtualMemory physical capacity: 8588881920 num_ppages: 2096895
VirtualMemory page size: 4096 log2_page_size: 12

CPU 0 runs /datasets/cs240c-wi22-a00-public/data/Assignment2/astar_313B.trace.xz
CPU 0 Bimodal branch predictor
Basic BTB sets: 1024 ways: 8 indirect buffer size: 4096 RAS size: 64
Initialize SRRIP state
Heartbeat CPU 0 instructions: 10000003 cycles: 3955918 heartbeat IPC: 2.52786 cumulative IPC: 2.52786 (Simulation time: 0 hr 0 min 57 sec) 

Warmup complete CPU 0 instructions: 10000003 cycles: 3955918 (Simulation time: 0 hr 0 min 57 sec) 

Heartbeat CPU 0 instructions: 20000004 cycles: 58395889 heartbeat IPC: 0.183689 cumulative IPC: 0.183689 (Simulation time: 0 hr 3 min 9 sec) 
Heartbeat CPU 0 instructions: 30000001 cycles: 119000811 heartbeat IPC: 0.165003 cumulative IPC: 0.173845 (Simulation time: 0 hr 6 min 10 sec) 
Heartbeat CPU 0 instructions: 40000000 cycles: 177423429 heartbeat IPC: 0.171167 cumulative IPC: 0.172943 (Simulation time: 0 hr 8 min 56 sec) 
Heartbeat CPU 0 instructions: 50000001 cycles: 231887516 heartbeat IPC: 0.183607 cumulative IPC: 0.175491 (Simulation time: 0 hr 11 min 9 sec) 
Heartbeat CPU 0 instructions: 60000000 cycles: 291494007 heartbeat IPC: 0.167767 cumulative IPC: 0.17389 (Simulation time: 0 hr 13 min 44 sec) 
Heartbeat CPU 0 instructions: 70000000 cycles: 349527773 heartbeat IPC: 0.172313 cumulative IPC: 0.173625 (Simulation time: 0 hr 16 min 17 sec) 
Heartbeat CPU 0 instructions: 80000000 cycles: 403378471 heartbeat IPC: 0.185699 cumulative IPC: 0.175253 (Simulation time: 0 hr 18 min 28 sec) 
Heartbeat CPU 0 instructions: 90000001 cycles: 457336798 heartbeat IPC: 0.185328 cumulative IPC: 0.176452 (Simulation time: 0 hr 20 min 40 sec) 
Heartbeat CPU 0 instructions: 100000000 cycles: 511962221 heartbeat IPC: 0.183065 cumulative IPC: 0.177163 (Simulation time: 0 hr 22 min 50 sec) 
Heartbeat CPU 0 instructions: 110000000 cycles: 569996466 heartbeat IPC: 0.172312 cumulative IPC: 0.176666 (Simulation time: 0 hr 25 min 24 sec) 
Finished CPU 0 instructions: 100000001 cycles: 566040549 cumulative IPC: 0.176666 (Simulation time: 0 hr 25 min 24 sec) 

ChampSim completed all CPUs

Region of Interest Statistics

CPU 0 cumulative IPC: 0.176666 instructions: 100000001 cycles: 566040549
cpu0_DTLB TOTAL     ACCESS:   34345043  HIT:   30526535  MISS:    3818508
cpu0_DTLB LOAD      ACCESS:   26404701  HIT:   23782939  MISS:    2621762
cpu0_DTLB RFO       ACCESS:    7940342  HIT:    6743596  MISS:    1196746
cpu0_DTLB PREFETCH  ACCESS:          0  HIT:          0  MISS:          0
cpu0_DTLB WRITEBACK ACCESS:          0  HIT:          0  MISS:          0
cpu0_DTLB TRANSLATION ACCESS:          0  HIT:          0  MISS:          0
cpu0_DTLB PREFETCH  REQUESTED:          0  ISSUED:          0  USEFUL:          0  USELESS:          0
cpu0_DTLB AVERAGE MISS LATENCY: 164.329 cycles
cpu0_ITLB TOTAL     ACCESS:   11440302  HIT:   11440302  MISS:          0
cpu0_ITLB LOAD      ACCESS:   11440302  HIT:   11440302  MISS:          0
cpu0_ITLB RFO       ACCESS:          0  HIT:          0  MISS:          0
cpu0_ITLB PREFETCH  ACCESS:          0  HIT:          0  MISS:          0
cpu0_ITLB WRITEBACK ACCESS:          0  HIT:          0  MISS:          0
cpu0_ITLB TRANSLATION ACCESS:          0  HIT:          0  MISS:          0
cpu0_ITLB PREFETCH  REQUESTED:          0  ISSUED:          0  USEFUL:          0  USELESS:          0
cpu0_ITLB AVERAGE MISS LATENCY: -nan cycles
cpu0_L1I TOTAL     ACCESS:        129  HIT:        126  MISS:          3
cpu0_L1I LOAD      ACCESS:        129  HIT:        126  MISS:          3
cpu0_L1I RFO       ACCESS:          0  HIT:          0  MISS:          0
cpu0_L1I PREFETCH  ACCESS:          0  HIT:          0  MISS:          0
cpu0_L1I WRITEBACK ACCESS:          0  HIT:          0  MISS:          0
cpu0_L1I TRANSLATION ACCESS:          0  HIT:          0  MISS:          0
cpu0_L1I PREFETCH  REQUESTED:          0  ISSUED:          0  USEFUL:          0  USELESS:          0
cpu0_L1I AVERAGE MISS LATENCY: 197 cycles
cpu0_STLB TOTAL     ACCESS:    3818508  HIT:    1895937  MISS:    1922571
cpu0_STLB LOAD      ACCESS:    2621762  HIT:    1784277  MISS:     837485
cpu0_STLB RFO       ACCESS:    1196746  HIT:     111660  MISS:    1085086
cpu0_STLB PREFETCH  ACCESS:          0  HIT:          0  MISS:          0
cpu0_STLB WRITEBACK ACCESS:          0  HIT:          0  MISS:          0
cpu0_STLB TRANSLATION ACCESS:          0  HIT:          0  MISS:          0
cpu0_STLB PREFETCH  REQUESTED:          0  ISSUED:          0  USEFUL:          0  USELESS:          0
cpu0_STLB AVERAGE MISS LATENCY: 308.321 cycles
cpu0_L1D TOTAL     ACCESS:   35958911  HIT:   30106181  MISS:    5852730
cpu0_L1D LOAD      ACCESS:   24413920  HIT:   20482953  MISS:    3930967
cpu0_L1D RFO       ACCESS:   10121078  HIT:    8210423  MISS:    1910655
cpu0_L1D PREFETCH  ACCESS:          0  HIT:          0  MISS:          0
cpu0_L1D WRITEBACK ACCESS:          0  HIT:          0  MISS:          0
cpu0_L1D TRANSLATION ACCESS:    1423913  HIT:    1412805  MISS:      11108
cpu0_L1D PREFETCH  REQUESTED:          0  ISSUED:          0  USEFUL:          0  USELESS:          0
cpu0_L1D AVERAGE MISS LATENCY: 376.595 cycles
cpu0_L2C TOTAL     ACCESS:    8697454  HIT:    4509630  MISS:    4187824
cpu0_L2C LOAD      ACCESS:    3930960  HIT:    1549446  MISS:    2381514
cpu0_L2C RFO       ACCESS:    1910655  HIT:     106264  MISS:    1804391
cpu0_L2C PREFETCH  ACCESS:          0  HIT:          0  MISS:          0
cpu0_L2C WRITEBACK ACCESS:    2844731  HIT:    2844557  MISS:        174
cpu0_L2C TRANSLATION ACCESS:      11108  HIT:       9363  MISS:       1745
cpu0_L2C PREFETCH  REQUESTED:          0  ISSUED:          0  USEFUL:          0  USELESS:          0
cpu0_L2C AVERAGE MISS LATENCY: 510.907 cycles
LLC TOTAL     ACCESS:    6918209  HIT:    2635996  MISS:    4282213
LLC LOAD      ACCESS:    2381514  HIT:     497113  MISS:    1884401
LLC RFO       ACCESS:    1804386  HIT:     696965  MISS:    1107421
LLC PREFETCH  ACCESS:          0  HIT:          0  MISS:          0
LLC WRITEBACK ACCESS:    2730564  HIT:    1440321  MISS:    1290243
LLC TRANSLATION ACCESS:       1745  HIT:       1597  MISS:        148
LLC PREFETCH  REQUESTED:          0  ISSUED:          0  USEFUL:          0  USELESS:          0
LLC AVERAGE MISS LATENCY: 479.107 cycles
Insertion Distribution: 
	LOAD 79666 0 112851 1903538 
	RFO 67288 0 131467 1177144 
	PREF 0 0 0 0 
	WRITEBACK 0 0 0 1542936 
	 13 0 56 139 
Total Prefetch Downgrades: 0

DRAM Statistics
 CHANNEL 0
 RQ ROW_BUFFER_HIT:      25414  ROW_BUFFER_MISS:    2965536
 DBUS AVG_CONGESTED_CYCLE:      3.999
 WQ ROW_BUFFER_HIT:     175188  ROW_BUFFER_MISS:    1381023  FULL:      10196


CPU 0 Branch Prediction Accuracy: 88.672% MPKI: 23.9003 Average ROB Occupancy at Mispredict: 22.8511
Branch type MPKI
BRANCH_DIRECT_JUMP: 1e-05
BRANCH_INDIRECT: 0
BRANCH_CONDITIONAL: 23.8999
BRANCH_DIRECT_CALL: 0
BRANCH_INDIRECT_CALL: 0.00038
BRANCH_RETURN: 0

