
*** ChampSim Multicore Out-of-Order Simulator ***

Warmup Instructions: 10000000
Simulation Instructions: 100000000
Number of CPUs: 1
Off-chip DRAM Size: 4 GiB Channels: 1 Width: 64-bit Data Rate: 3200 MT/s

VirtualMemory physical capacity: 8588881920 num_ppages: 2096895
VirtualMemory page size: 4096 log2_page_size: 12

CPU 0 runs /datasets/cs240c-wi22-a00-public/data/Assignment2/mcf_158B.trace.xz
CPU 0 Bimodal branch predictor
Basic BTB sets: 1024 ways: 8 indirect buffer size: 4096 RAS size: 64
Initialize SRRIP state
Heartbeat CPU 0 instructions: 10000002 cycles: 3864075 heartbeat IPC: 2.58794 cumulative IPC: 2.58794 (Simulation time: 0 hr 0 min 53 sec) 

Warmup complete CPU 0 instructions: 10000002 cycles: 3864075 (Simulation time: 0 hr 0 min 53 sec) 

Heartbeat CPU 0 instructions: 20000000 cycles: 136551598 heartbeat IPC: 0.075365 cumulative IPC: 0.075365 (Simulation time: 0 hr 4 min 21 sec) 
Heartbeat CPU 0 instructions: 30000000 cycles: 263203912 heartbeat IPC: 0.0789563 cumulative IPC: 0.0771189 (Simulation time: 0 hr 7 min 26 sec) 
Heartbeat CPU 0 instructions: 40000001 cycles: 387547479 heartbeat IPC: 0.0804223 cumulative IPC: 0.0781895 (Simulation time: 0 hr 10 min 25 sec) 
Heartbeat CPU 0 instructions: 50000000 cycles: 502090658 heartbeat IPC: 0.0873033 cumulative IPC: 0.0802848 (Simulation time: 0 hr 13 min 15 sec) 
Heartbeat CPU 0 instructions: 60000000 cycles: 612425951 heartbeat IPC: 0.0906328 cumulative IPC: 0.0821609 (Simulation time: 0 hr 15 min 56 sec) 
Heartbeat CPU 0 instructions: 70000002 cycles: 720297417 heartbeat IPC: 0.0927029 cumulative IPC: 0.0837482 (Simulation time: 0 hr 18 min 34 sec) 
Heartbeat CPU 0 instructions: 80000000 cycles: 830471841 heartbeat IPC: 0.0907651 cumulative IPC: 0.0846834 (Simulation time: 0 hr 21 min 19 sec) 
Heartbeat CPU 0 instructions: 90000003 cycles: 944244256 heartbeat IPC: 0.0878948 cumulative IPC: 0.085072 (Simulation time: 0 hr 24 min 3 sec) 
Heartbeat CPU 0 instructions: 100000003 cycles: 1059841185 heartbeat IPC: 0.0865075 cumulative IPC: 0.0852291 (Simulation time: 0 hr 26 min 50 sec) 
Heartbeat CPU 0 instructions: 110000001 cycles: 1177000831 heartbeat IPC: 0.0853536 cumulative IPC: 0.0852416 (Simulation time: 0 hr 29 min 43 sec) 
Finished CPU 0 instructions: 100000002 cycles: 1173136757 cumulative IPC: 0.0852416 (Simulation time: 0 hr 29 min 43 sec) 

ChampSim completed all CPUs

Region of Interest Statistics

CPU 0 cumulative IPC: 0.0852416 instructions: 100000002 cycles: 1173136757
cpu0_DTLB TOTAL     ACCESS:   23549621  HIT:   12728060  MISS:   10821561
cpu0_DTLB LOAD      ACCESS:   20429330  HIT:    9974786  MISS:   10454544
cpu0_DTLB RFO       ACCESS:    3120291  HIT:    2753274  MISS:     367017
cpu0_DTLB PREFETCH  ACCESS:          0  HIT:          0  MISS:          0
cpu0_DTLB WRITEBACK ACCESS:          0  HIT:          0  MISS:          0
cpu0_DTLB TRANSLATION ACCESS:          0  HIT:          0  MISS:          0
cpu0_DTLB PREFETCH  REQUESTED:          0  ISSUED:          0  USEFUL:          0  USELESS:          0
cpu0_DTLB AVERAGE MISS LATENCY: 11.0084 cycles
cpu0_ITLB TOTAL     ACCESS:   12963976  HIT:   12963976  MISS:          0
cpu0_ITLB LOAD      ACCESS:   12963976  HIT:   12963976  MISS:          0
cpu0_ITLB RFO       ACCESS:          0  HIT:          0  MISS:          0
cpu0_ITLB PREFETCH  ACCESS:          0  HIT:          0  MISS:          0
cpu0_ITLB WRITEBACK ACCESS:          0  HIT:          0  MISS:          0
cpu0_ITLB TRANSLATION ACCESS:          0  HIT:          0  MISS:          0
cpu0_ITLB PREFETCH  REQUESTED:          0  ISSUED:          0  USEFUL:          0  USELESS:          0
cpu0_ITLB AVERAGE MISS LATENCY: -nan cycles
cpu0_L1I TOTAL     ACCESS:         19  HIT:         14  MISS:          5
cpu0_L1I LOAD      ACCESS:         19  HIT:         14  MISS:          5
cpu0_L1I RFO       ACCESS:          0  HIT:          0  MISS:          0
cpu0_L1I PREFETCH  ACCESS:          0  HIT:          0  MISS:          0
cpu0_L1I WRITEBACK ACCESS:          0  HIT:          0  MISS:          0
cpu0_L1I TRANSLATION ACCESS:          0  HIT:          0  MISS:          0
cpu0_L1I PREFETCH  REQUESTED:          0  ISSUED:          0  USEFUL:          0  USELESS:          0
cpu0_L1I AVERAGE MISS LATENCY: 194.4 cycles
cpu0_STLB TOTAL     ACCESS:   10821561  HIT:    9710264  MISS:    1111297
cpu0_STLB LOAD      ACCESS:   10454544  HIT:    9350012  MISS:    1104532
cpu0_STLB RFO       ACCESS:     367017  HIT:     360252  MISS:       6765
cpu0_STLB PREFETCH  ACCESS:          0  HIT:          0  MISS:          0
cpu0_STLB WRITEBACK ACCESS:          0  HIT:          0  MISS:          0
cpu0_STLB TRANSLATION ACCESS:          0  HIT:          0  MISS:          0
cpu0_STLB PREFETCH  REQUESTED:          0  ISSUED:          0  USEFUL:          0  USELESS:          0
cpu0_STLB AVERAGE MISS LATENCY: 19.519 cycles
cpu0_L1D TOTAL     ACCESS:   27610515  HIT:   14066366  MISS:   13544149
cpu0_L1D LOAD      ACCESS:   22263811  HIT:    9093862  MISS:   13169949
cpu0_L1D RFO       ACCESS:    4238999  HIT:    4033854  MISS:     205145
cpu0_L1D PREFETCH  ACCESS:          0  HIT:          0  MISS:          0
cpu0_L1D WRITEBACK ACCESS:          0  HIT:          0  MISS:          0
cpu0_L1D TRANSLATION ACCESS:    1107705  HIT:     938650  MISS:     169055
cpu0_L1D PREFETCH  REQUESTED:          0  ISSUED:          0  USEFUL:          0  USELESS:          0
cpu0_L1D AVERAGE MISS LATENCY: 154.52 cycles
cpu0_L2C TOTAL     ACCESS:   15653013  HIT:    6139852  MISS:    9513161
cpu0_L2C LOAD      ACCESS:   13169586  HIT:    3841601  MISS:    9327985
cpu0_L2C RFO       ACCESS:     205139  HIT:      71926  MISS:     133213
cpu0_L2C PREFETCH  ACCESS:          0  HIT:          0  MISS:          0
cpu0_L2C WRITEBACK ACCESS:    2109233  HIT:    2108880  MISS:        353
cpu0_L2C TRANSLATION ACCESS:     169055  HIT:     117445  MISS:      51610
cpu0_L2C PREFETCH  REQUESTED:          0  ISSUED:          0  USEFUL:          0  USELESS:          0
cpu0_L2C AVERAGE MISS LATENCY: 204.261 cycles
LLC TOTAL     ACCESS:   11019182  HIT:    4731203  MISS:    6287979
LLC LOAD      ACCESS:    9327983  HIT:    3694991  MISS:    5632992
LLC RFO       ACCESS:     133213  HIT:      76143  MISS:      57070
LLC PREFETCH  ACCESS:          0  HIT:          0  MISS:          0
LLC WRITEBACK ACCESS:    1506376  HIT:     914680  MISS:     591696
LLC TRANSLATION ACCESS:      51610  HIT:      45389  MISS:       6221
LLC PREFETCH  REQUESTED:          0  ISSUED:          0  USEFUL:          0  USELESS:          0
LLC AVERAGE MISS LATENCY: 277.258 cycles
Insertion Distribution: 
	LOAD 172861 0 118639 6029015 
	RFO 492 0 8342 50705 
	PREF 0 0 0 0 
	WRITEBACK 0 0 0 615907 
	 31 0 195 6855 
Total Prefetch Downgrades: 0

DRAM Statistics
 CHANNEL 0
 RQ ROW_BUFFER_HIT:       9883  ROW_BUFFER_MISS:    5685998
 DBUS AVG_CONGESTED_CYCLE:     3.9514
 WQ ROW_BUFFER_HIT:      38531  ROW_BUFFER_MISS:     689781  FULL:          0


CPU 0 Branch Prediction Accuracy: 85.5988% MPKI: 40.2398 Average ROB Occupancy at Mispredict: 17.243
Branch type MPKI
BRANCH_DIRECT_JUMP: 4e-05
BRANCH_INDIRECT: 0
BRANCH_CONDITIONAL: 40.2397
BRANCH_DIRECT_CALL: 0
BRANCH_INDIRECT_CALL: 0
BRANCH_RETURN: 0

