
*** ChampSim Multicore Out-of-Order Simulator ***

Warmup Instructions: 10000000
Simulation Instructions: 100000000
Number of CPUs: 1
Off-chip DRAM Size: 4 GiB Channels: 1 Width: 64-bit Data Rate: 3200 MT/s

VirtualMemory physical capacity: 8588881920 num_ppages: 2096895
VirtualMemory page size: 4096 log2_page_size: 12

CPU 0 runs /datasets/cs240c-wi22-a00-public/data/Assignment2/soplex_217B.trace.xz
CPU 0 Bimodal branch predictor
Basic BTB sets: 1024 ways: 8 indirect buffer size: 4096 RAS size: 64
Initialize SRRIP state
Heartbeat CPU 0 instructions: 10000000 cycles: 2844434 heartbeat IPC: 3.51564 cumulative IPC: 3.51564 (Simulation time: 0 hr 0 min 34 sec) 

Warmup complete CPU 0 instructions: 10000004 cycles: 2844435 (Simulation time: 0 hr 0 min 34 sec) 

Heartbeat CPU 0 instructions: 20000000 cycles: 34841879 heartbeat IPC: 0.312525 cumulative IPC: 0.312525 (Simulation time: 0 hr 2 min 8 sec) 
Heartbeat CPU 0 instructions: 30000004 cycles: 65061903 heartbeat IPC: 0.330907 cumulative IPC: 0.321453 (Simulation time: 0 hr 3 min 48 sec) 
Heartbeat CPU 0 instructions: 40000003 cycles: 95325297 heartbeat IPC: 0.330432 cumulative IPC: 0.324391 (Simulation time: 0 hr 5 min 26 sec) 
Heartbeat CPU 0 instructions: 50000000 cycles: 124370798 heartbeat IPC: 0.344287 cumulative IPC: 0.329147 (Simulation time: 0 hr 7 min 1 sec) 
Heartbeat CPU 0 instructions: 60000002 cycles: 154621241 heartbeat IPC: 0.330574 cumulative IPC: 0.329431 (Simulation time: 0 hr 8 min 30 sec) 
Heartbeat CPU 0 instructions: 70000000 cycles: 199400713 heartbeat IPC: 0.223317 cumulative IPC: 0.305256 (Simulation time: 0 hr 10 min 38 sec) 
Heartbeat CPU 0 instructions: 80000000 cycles: 232322127 heartbeat IPC: 0.303754 cumulative IPC: 0.305041 (Simulation time: 0 hr 12 min 1 sec) 
Heartbeat CPU 0 instructions: 90000002 cycles: 261607179 heartbeat IPC: 0.341471 cumulative IPC: 0.309164 (Simulation time: 0 hr 13 min 32 sec) 
Heartbeat CPU 0 instructions: 100000003 cycles: 292590833 heartbeat IPC: 0.322751 cumulative IPC: 0.310616 (Simulation time: 0 hr 15 min 8 sec) 
Heartbeat CPU 0 instructions: 110000000 cycles: 321244574 heartbeat IPC: 0.348994 cumulative IPC: 0.31407 (Simulation time: 0 hr 16 min 23 sec) 
Finished CPU 0 instructions: 100000000 cycles: 318400141 cumulative IPC: 0.31407 (Simulation time: 0 hr 16 min 23 sec) 

ChampSim completed all CPUs

Region of Interest Statistics

CPU 0 cumulative IPC: 0.31407 instructions: 100000000 cycles: 318400141
cpu0_DTLB TOTAL     ACCESS:   21879120  HIT:   21013865  MISS:     865255
cpu0_DTLB LOAD      ACCESS:   16714752  HIT:   16030399  MISS:     684353
cpu0_DTLB RFO       ACCESS:    5164368  HIT:    4983466  MISS:     180902
cpu0_DTLB PREFETCH  ACCESS:          0  HIT:          0  MISS:          0
cpu0_DTLB WRITEBACK ACCESS:          0  HIT:          0  MISS:          0
cpu0_DTLB TRANSLATION ACCESS:          0  HIT:          0  MISS:          0
cpu0_DTLB PREFETCH  REQUESTED:          0  ISSUED:          0  USEFUL:          0  USELESS:          0
cpu0_DTLB AVERAGE MISS LATENCY: 14.5952 cycles
cpu0_ITLB TOTAL     ACCESS:    8466899  HIT:    8466881  MISS:         18
cpu0_ITLB LOAD      ACCESS:    8466899  HIT:    8466881  MISS:         18
cpu0_ITLB RFO       ACCESS:          0  HIT:          0  MISS:          0
cpu0_ITLB PREFETCH  ACCESS:          0  HIT:          0  MISS:          0
cpu0_ITLB WRITEBACK ACCESS:          0  HIT:          0  MISS:          0
cpu0_ITLB TRANSLATION ACCESS:          0  HIT:          0  MISS:          0
cpu0_ITLB PREFETCH  REQUESTED:          0  ISSUED:          0  USEFUL:          0  USELESS:          0
cpu0_ITLB AVERAGE MISS LATENCY: 248.444 cycles
cpu0_L1I TOTAL     ACCESS:     355335  HIT:     354682  MISS:        653
cpu0_L1I LOAD      ACCESS:     355335  HIT:     354682  MISS:        653
cpu0_L1I RFO       ACCESS:          0  HIT:          0  MISS:          0
cpu0_L1I PREFETCH  ACCESS:          0  HIT:          0  MISS:          0
cpu0_L1I WRITEBACK ACCESS:          0  HIT:          0  MISS:          0
cpu0_L1I TRANSLATION ACCESS:          0  HIT:          0  MISS:          0
cpu0_L1I PREFETCH  REQUESTED:          0  ISSUED:          0  USEFUL:          0  USELESS:          0
cpu0_L1I AVERAGE MISS LATENCY: 310.32 cycles
cpu0_STLB TOTAL     ACCESS:     865273  HIT:     741760  MISS:     123513
cpu0_STLB LOAD      ACCESS:     684371  HIT:     570213  MISS:     114158
cpu0_STLB RFO       ACCESS:     180902  HIT:     171547  MISS:       9355
cpu0_STLB PREFETCH  ACCESS:          0  HIT:          0  MISS:          0
cpu0_STLB WRITEBACK ACCESS:          0  HIT:          0  MISS:          0
cpu0_STLB TRANSLATION ACCESS:          0  HIT:          0  MISS:          0
cpu0_STLB PREFETCH  REQUESTED:          0  ISSUED:          0  USEFUL:          0  USELESS:          0
cpu0_STLB AVERAGE MISS LATENCY: 38.0636 cycles
cpu0_L1D TOTAL     ACCESS:   18165959  HIT:   12341996  MISS:    5823963
cpu0_L1D LOAD      ACCESS:   12233738  HIT:    7239409  MISS:    4994329
cpu0_L1D RFO       ACCESS:    5812279  HIT:    4987664  MISS:     824615
cpu0_L1D PREFETCH  ACCESS:          0  HIT:          0  MISS:          0
cpu0_L1D WRITEBACK ACCESS:          0  HIT:          0  MISS:          0
cpu0_L1D TRANSLATION ACCESS:     119942  HIT:     114923  MISS:       5019
cpu0_L1D PREFETCH  REQUESTED:          0  ISSUED:          0  USEFUL:          0  USELESS:          0
cpu0_L1D AVERAGE MISS LATENCY: 198.142 cycles
cpu0_L2C TOTAL     ACCESS:    8411730  HIT:    3954396  MISS:    4457334
cpu0_L2C LOAD      ACCESS:    4994407  HIT:    1232041  MISS:    3762366
cpu0_L2C RFO       ACCESS:     824557  HIT:     130443  MISS:     694114
cpu0_L2C PREFETCH  ACCESS:          0  HIT:          0  MISS:          0
cpu0_L2C WRITEBACK ACCESS:    2587747  HIT:    2587644  MISS:        103
cpu0_L2C TRANSLATION ACCESS:       5019  HIT:       4268  MISS:        751
cpu0_L2C PREFETCH  REQUESTED:          0  ISSUED:          0  USEFUL:          0  USELESS:          0
cpu0_L2C AVERAGE MISS LATENCY: 244.326 cycles
LLC TOTAL     ACCESS:    6308178  HIT:    3166006  MISS:    3142172
LLC LOAD      ACCESS:    3762350  HIT:    1480620  MISS:    2281730
LLC RFO       ACCESS:     694112  HIT:     250965  MISS:     443147
LLC PREFETCH  ACCESS:          0  HIT:          0  MISS:          0
LLC WRITEBACK ACCESS:    1850965  HIT:    1434073  MISS:     416892
LLC TRANSLATION ACCESS:        751  HIT:        348  MISS:        403
LLC PREFETCH  REQUESTED:          0  ISSUED:          0  USEFUL:          0  USELESS:          0
LLC AVERAGE MISS LATENCY: 316.534 cycles
Insertion Distribution: 
	LOAD 340415 0 375086 1850806 
	RFO 104736 0 129093 256847 
	PREF 0 0 0 0 
	WRITEBACK 0 0 0 495725 
	 3 0 176 275 
Total Prefetch Downgrades: 0

DRAM Statistics
 CHANNEL 0
 RQ ROW_BUFFER_HIT:     309117  ROW_BUFFER_MISS:    2413594
 DBUS AVG_CONGESTED_CYCLE:    3.94715
 WQ ROW_BUFFER_HIT:      49184  ROW_BUFFER_MISS:     894469  FULL:     246107


CPU 0 Branch Prediction Accuracy: 93.2069% MPKI: 14.28 Average ROB Occupancy at Mispredict: 50.0126
Branch type MPKI
BRANCH_DIRECT_JUMP: 0.00099
BRANCH_INDIRECT: 0.00023
BRANCH_CONDITIONAL: 14.2767
BRANCH_DIRECT_CALL: 0.00062
BRANCH_INDIRECT_CALL: 0.00054
BRANCH_RETURN: 0.00093

