
*** ChampSim Multicore Out-of-Order Simulator ***

Warmup Instructions: 10000000
Simulation Instructions: 100000000
Number of CPUs: 1
Off-chip DRAM Size: 4 GiB Channels: 1 Width: 64-bit Data Rate: 3200 MT/s

VirtualMemory physical capacity: 8588881920 num_ppages: 2096895
VirtualMemory page size: 4096 log2_page_size: 12

CPU 0 runs /datasets/cs240c-wi22-a00-public/data/Assignment2/tonto_422B.trace.xz
CPU 0 Bimodal branch predictor
Basic BTB sets: 1024 ways: 8 indirect buffer size: 4096 RAS size: 64
Initialize SRRIP state
Heartbeat CPU 0 instructions: 10000003 cycles: 2501969 heartbeat IPC: 3.99685 cumulative IPC: 3.99685 (Simulation time: 0 hr 0 min 27 sec) 

Warmup complete CPU 0 instructions: 10000003 cycles: 2501969 (Simulation time: 0 hr 0 min 27 sec) 

Heartbeat CPU 0 instructions: 20000000 cycles: 8975831 heartbeat IPC: 1.54467 cumulative IPC: 1.54467 (Simulation time: 0 hr 1 min 5 sec) 
Heartbeat CPU 0 instructions: 30000000 cycles: 15445583 heartbeat IPC: 1.54565 cumulative IPC: 1.54516 (Simulation time: 0 hr 1 min 43 sec) 
Heartbeat CPU 0 instructions: 40000002 cycles: 22042140 heartbeat IPC: 1.51594 cumulative IPC: 1.5353 (Simulation time: 0 hr 2 min 21 sec) 
Heartbeat CPU 0 instructions: 50000000 cycles: 29706504 heartbeat IPC: 1.30474 cumulative IPC: 1.47034 (Simulation time: 0 hr 3 min 5 sec) 
Heartbeat CPU 0 instructions: 60000004 cycles: 36879784 heartbeat IPC: 1.39406 cumulative IPC: 1.45443 (Simulation time: 0 hr 3 min 52 sec) 
Heartbeat CPU 0 instructions: 70000001 cycles: 43562025 heartbeat IPC: 1.4965 cumulative IPC: 1.46127 (Simulation time: 0 hr 4 min 37 sec) 
Heartbeat CPU 0 instructions: 80000000 cycles: 50176998 heartbeat IPC: 1.51172 cumulative IPC: 1.46827 (Simulation time: 0 hr 5 min 23 sec) 
Heartbeat CPU 0 instructions: 90000000 cycles: 57085266 heartbeat IPC: 1.44754 cumulative IPC: 1.46565 (Simulation time: 0 hr 6 min 8 sec) 
Heartbeat CPU 0 instructions: 100000002 cycles: 63726576 heartbeat IPC: 1.50573 cumulative IPC: 1.47 (Simulation time: 0 hr 6 min 50 sec) 
Heartbeat CPU 0 instructions: 110000001 cycles: 70437876 heartbeat IPC: 1.49002 cumulative IPC: 1.47198 (Simulation time: 0 hr 7 min 34 sec) 
Finished CPU 0 instructions: 100000003 cycles: 67935908 cumulative IPC: 1.47198 (Simulation time: 0 hr 7 min 34 sec) 

ChampSim completed all CPUs

Region of Interest Statistics

CPU 0 cumulative IPC: 1.47198 instructions: 100000003 cycles: 67935908
cpu0_DTLB TOTAL     ACCESS:   12822873  HIT:   12786602  MISS:      36271
cpu0_DTLB LOAD      ACCESS:    9457438  HIT:    9431002  MISS:      26436
cpu0_DTLB RFO       ACCESS:    3365435  HIT:    3355600  MISS:       9835
cpu0_DTLB PREFETCH  ACCESS:          0  HIT:          0  MISS:          0
cpu0_DTLB WRITEBACK ACCESS:          0  HIT:          0  MISS:          0
cpu0_DTLB TRANSLATION ACCESS:          0  HIT:          0  MISS:          0
cpu0_DTLB PREFETCH  REQUESTED:          0  ISSUED:          0  USEFUL:          0  USELESS:          0
cpu0_DTLB AVERAGE MISS LATENCY: 13.421 cycles
cpu0_ITLB TOTAL     ACCESS:    4151874  HIT:    4151843  MISS:         31
cpu0_ITLB LOAD      ACCESS:    4151874  HIT:    4151843  MISS:         31
cpu0_ITLB RFO       ACCESS:          0  HIT:          0  MISS:          0
cpu0_ITLB PREFETCH  ACCESS:          0  HIT:          0  MISS:          0
cpu0_ITLB WRITEBACK ACCESS:          0  HIT:          0  MISS:          0
cpu0_ITLB TRANSLATION ACCESS:          0  HIT:          0  MISS:          0
cpu0_ITLB PREFETCH  REQUESTED:          0  ISSUED:          0  USEFUL:          0  USELESS:          0
cpu0_ITLB AVERAGE MISS LATENCY: 210.258 cycles
cpu0_L1I TOTAL     ACCESS:    6343705  HIT:    6342589  MISS:       1116
cpu0_L1I LOAD      ACCESS:    6343705  HIT:    6342589  MISS:       1116
cpu0_L1I RFO       ACCESS:          0  HIT:          0  MISS:          0
cpu0_L1I PREFETCH  ACCESS:          0  HIT:          0  MISS:          0
cpu0_L1I WRITEBACK ACCESS:          0  HIT:          0  MISS:          0
cpu0_L1I TRANSLATION ACCESS:          0  HIT:          0  MISS:          0
cpu0_L1I PREFETCH  REQUESTED:          0  ISSUED:          0  USEFUL:          0  USELESS:          0
cpu0_L1I AVERAGE MISS LATENCY: 198.159 cycles
cpu0_STLB TOTAL     ACCESS:      36302  HIT:      35640  MISS:        662
cpu0_STLB LOAD      ACCESS:      26467  HIT:      26421  MISS:         46
cpu0_STLB RFO       ACCESS:       9835  HIT:       9219  MISS:        616
cpu0_STLB PREFETCH  ACCESS:          0  HIT:          0  MISS:          0
cpu0_STLB WRITEBACK ACCESS:          0  HIT:          0  MISS:          0
cpu0_STLB TRANSLATION ACCESS:          0  HIT:          0  MISS:          0
cpu0_STLB PREFETCH  REQUESTED:          0  ISSUED:          0  USEFUL:          0  USELESS:          0
cpu0_STLB AVERAGE MISS LATENCY: 251.4 cycles
cpu0_L1D TOTAL     ACCESS:   13826412  HIT:   12612079  MISS:    1214333
cpu0_L1D LOAD      ACCESS:    7740347  HIT:    6943391  MISS:     796956
cpu0_L1D RFO       ACCESS:    6085406  HIT:    5668042  MISS:     417364
cpu0_L1D PREFETCH  ACCESS:          0  HIT:          0  MISS:          0
cpu0_L1D WRITEBACK ACCESS:          0  HIT:          0  MISS:          0
cpu0_L1D TRANSLATION ACCESS:        659  HIT:        646  MISS:         13
cpu0_L1D PREFETCH  REQUESTED:          0  ISSUED:          0  USEFUL:          0  USELESS:          0
cpu0_L1D AVERAGE MISS LATENCY: 77.7423 cycles
cpu0_L2C TOTAL     ACCESS:    1652879  HIT:     826735  MISS:     826144
cpu0_L2C LOAD      ACCESS:     798072  HIT:     213918  MISS:     584154
cpu0_L2C RFO       ACCESS:     417364  HIT:     175416  MISS:     241948
cpu0_L2C PREFETCH  ACCESS:          0  HIT:          0  MISS:          0
cpu0_L2C WRITEBACK ACCESS:     437430  HIT:     437397  MISS:         33
cpu0_L2C TRANSLATION ACCESS:         13  HIT:          4  MISS:          9
cpu0_L2C PREFETCH  REQUESTED:          0  ISSUED:          0  USEFUL:          0  USELESS:          0
cpu0_L2C AVERAGE MISS LATENCY: 98.3141 cycles
LLC TOTAL     ACCESS:    1191087  HIT:     963816  MISS:     227271
LLC LOAD      ACCESS:     584120  HIT:     442142  MISS:     141978
LLC RFO       ACCESS:     241948  HIT:     187902  MISS:      54046
LLC PREFETCH  ACCESS:          0  HIT:          0  MISS:          0
LLC WRITEBACK ACCESS:     365010  HIT:     333764  MISS:      31246
LLC TRANSLATION ACCESS:          9  HIT:          8  MISS:          1
LLC PREFETCH  REQUESTED:          0  ISSUED:          0  USEFUL:          0  USELESS:          0
LLC AVERAGE MISS LATENCY: 280.909 cycles
Insertion Distribution: 
	LOAD 20911 0 81525 53842 
	RFO 6493 0 36260 14593 
	PREF 0 0 0 0 
	WRITEBACK 0 0 0 31246 
	 0 0 10 0 
Total Prefetch Downgrades: 0

DRAM Statistics
 CHANNEL 0
 RQ ROW_BUFFER_HIT:      29642  ROW_BUFFER_MISS:     165996
 DBUS AVG_CONGESTED_CYCLE:    3.96786
 WQ ROW_BUFFER_HIT:      17434  ROW_BUFFER_MISS:     110601  FULL:      13128


CPU 0 Branch Prediction Accuracy: 95.8021% MPKI: 4.07385 Average ROB Occupancy at Mispredict: 71.5694
Branch type MPKI
BRANCH_DIRECT_JUMP: 0.00041
BRANCH_INDIRECT: 5e-05
BRANCH_CONDITIONAL: 4.07099
BRANCH_DIRECT_CALL: 0.00126
BRANCH_INDIRECT_CALL: 0
BRANCH_RETURN: 0.00114

