
*** ChampSim Multicore Out-of-Order Simulator ***

Warmup Instructions: 10000000
Simulation Instructions: 100000000
Number of CPUs: 1
Off-chip DRAM Size: 4 GiB Channels: 1 Width: 64-bit Data Rate: 3200 MT/s

VirtualMemory physical capacity: 8588881920 num_ppages: 2096895
VirtualMemory page size: 4096 log2_page_size: 12

CPU 0 runs /datasets/cs240c-wi22-a00-public/data/Assignment2/bzip2_183B.trace.xz
CPU 0 Bimodal branch predictor
Basic BTB sets: 1024 ways: 8 indirect buffer size: 4096 RAS size: 64
Initialize SRRIP state
Heartbeat CPU 0 instructions: 10000000 cycles: 3166435 heartbeat IPC: 3.15813 cumulative IPC: 3.15813 (Simulation time: 0 hr 0 min 45 sec) 

Warmup complete CPU 0 instructions: 10000005 cycles: 3166437 (Simulation time: 0 hr 0 min 45 sec) 

Heartbeat CPU 0 instructions: 20000000 cycles: 10304307 heartbeat IPC: 1.40098 cumulative IPC: 1.40098 (Simulation time: 0 hr 1 min 26 sec) 
Heartbeat CPU 0 instructions: 30000001 cycles: 17827559 heartbeat IPC: 1.32921 cumulative IPC: 1.36415 (Simulation time: 0 hr 2 min 5 sec) 
Heartbeat CPU 0 instructions: 40000004 cycles: 25210037 heartbeat IPC: 1.35456 cumulative IPC: 1.36094 (Simulation time: 0 hr 2 min 45 sec) 
Heartbeat CPU 0 instructions: 50000001 cycles: 33030089 heartbeat IPC: 1.27876 cumulative IPC: 1.33942 (Simulation time: 0 hr 3 min 25 sec) 
Heartbeat CPU 0 instructions: 60000004 cycles: 40656384 heartbeat IPC: 1.31125 cumulative IPC: 1.33369 (Simulation time: 0 hr 4 min 5 sec) 
Heartbeat CPU 0 instructions: 70000002 cycles: 49327523 heartbeat IPC: 1.15325 cumulative IPC: 1.2998 (Simulation time: 0 hr 4 min 44 sec) 
Heartbeat CPU 0 instructions: 80000000 cycles: 57331338 heartbeat IPC: 1.2494 cumulative IPC: 1.29235 (Simulation time: 0 hr 5 min 24 sec) 
Heartbeat CPU 0 instructions: 90000002 cycles: 65722159 heartbeat IPC: 1.19178 cumulative IPC: 1.27886 (Simulation time: 0 hr 6 min 6 sec) 
Heartbeat CPU 0 instructions: 100000002 cycles: 74975346 heartbeat IPC: 1.08071 cumulative IPC: 1.25333 (Simulation time: 0 hr 6 min 47 sec) 
Heartbeat CPU 0 instructions: 110000003 cycles: 84259974 heartbeat IPC: 1.07705 cumulative IPC: 1.23314 (Simulation time: 0 hr 7 min 28 sec) 
Finished CPU 0 instructions: 100000003 cycles: 81093538 cumulative IPC: 1.23314 (Simulation time: 0 hr 7 min 28 sec) 

ChampSim completed all CPUs

Region of Interest Statistics

CPU 0 cumulative IPC: 1.23314 instructions: 100000003 cycles: 81093538
cpu0_DTLB TOTAL     ACCESS:   21898484  HIT:   21442268  MISS:     456216
cpu0_DTLB LOAD      ACCESS:   17507047  HIT:   17192116  MISS:     314931
cpu0_DTLB RFO       ACCESS:    4391437  HIT:    4250152  MISS:     141285
cpu0_DTLB PREFETCH  ACCESS:          0  HIT:          0  MISS:          0
cpu0_DTLB WRITEBACK ACCESS:          0  HIT:          0  MISS:          0
cpu0_DTLB TRANSLATION ACCESS:          0  HIT:          0  MISS:          0
cpu0_DTLB PREFETCH  REQUESTED:          0  ISSUED:          0  USEFUL:          0  USELESS:          0
cpu0_DTLB AVERAGE MISS LATENCY: 9.25449 cycles
cpu0_ITLB TOTAL     ACCESS:   10074919  HIT:   10074919  MISS:          0
cpu0_ITLB LOAD      ACCESS:   10074919  HIT:   10074919  MISS:          0
cpu0_ITLB RFO       ACCESS:          0  HIT:          0  MISS:          0
cpu0_ITLB PREFETCH  ACCESS:          0  HIT:          0  MISS:          0
cpu0_ITLB WRITEBACK ACCESS:          0  HIT:          0  MISS:          0
cpu0_ITLB TRANSLATION ACCESS:          0  HIT:          0  MISS:          0
cpu0_ITLB PREFETCH  REQUESTED:          0  ISSUED:          0  USEFUL:          0  USELESS:          0
cpu0_ITLB AVERAGE MISS LATENCY: -nan cycles
cpu0_L1I TOTAL     ACCESS:      41355  HIT:      41354  MISS:          1
cpu0_L1I LOAD      ACCESS:      41355  HIT:      41354  MISS:          1
cpu0_L1I RFO       ACCESS:          0  HIT:          0  MISS:          0
cpu0_L1I PREFETCH  ACCESS:          0  HIT:          0  MISS:          0
cpu0_L1I WRITEBACK ACCESS:          0  HIT:          0  MISS:          0
cpu0_L1I TRANSLATION ACCESS:          0  HIT:          0  MISS:          0
cpu0_L1I PREFETCH  REQUESTED:          0  ISSUED:          0  USEFUL:          0  USELESS:          0
cpu0_L1I AVERAGE MISS LATENCY: 194 cycles
cpu0_STLB TOTAL     ACCESS:     456216  HIT:     455823  MISS:        393
cpu0_STLB LOAD      ACCESS:     314931  HIT:     314790  MISS:        141
cpu0_STLB RFO       ACCESS:     141285  HIT:     141033  MISS:        252
cpu0_STLB PREFETCH  ACCESS:          0  HIT:          0  MISS:          0
cpu0_STLB WRITEBACK ACCESS:          0  HIT:          0  MISS:          0
cpu0_STLB TRANSLATION ACCESS:          0  HIT:          0  MISS:          0
cpu0_STLB PREFETCH  REQUESTED:          0  ISSUED:          0  USEFUL:          0  USELESS:          0
cpu0_STLB AVERAGE MISS LATENCY: 211.247 cycles
cpu0_L1D TOTAL     ACCESS:   20753811  HIT:   19344418  MISS:    1409393
cpu0_L1D LOAD      ACCESS:   14095609  HIT:   13040258  MISS:    1055351
cpu0_L1D RFO       ACCESS:    6657830  HIT:    6303983  MISS:     353847
cpu0_L1D PREFETCH  ACCESS:          0  HIT:          0  MISS:          0
cpu0_L1D WRITEBACK ACCESS:          0  HIT:          0  MISS:          0
cpu0_L1D TRANSLATION ACCESS:        372  HIT:        177  MISS:        195
cpu0_L1D PREFETCH  REQUESTED:          0  ISSUED:          0  USEFUL:          0  USELESS:          0
cpu0_L1D AVERAGE MISS LATENCY: 78.8877 cycles
cpu0_L2C TOTAL     ACCESS:    1811632  HIT:    1198384  MISS:     613248
cpu0_L2C LOAD      ACCESS:    1055335  HIT:     692828  MISS:     362507
cpu0_L2C RFO       ACCESS:     353804  HIT:     103166  MISS:     250638
cpu0_L2C PREFETCH  ACCESS:          0  HIT:          0  MISS:          0
cpu0_L2C WRITEBACK ACCESS:     402298  HIT:     402226  MISS:         72
cpu0_L2C TRANSLATION ACCESS:        195  HIT:        164  MISS:         31
cpu0_L2C PREFETCH  REQUESTED:          0  ISSUED:          0  USEFUL:          0  USELESS:          0
cpu0_L2C AVERAGE MISS LATENCY: 155.885 cycles
LLC TOTAL     ACCESS:     901944  HIT:     752708  MISS:     149236
LLC LOAD      ACCESS:     362504  HIT:     293940  MISS:      68564
LLC RFO       ACCESS:     250606  HIT:     185064  MISS:      65542
LLC PREFETCH  ACCESS:          0  HIT:          0  MISS:          0
LLC WRITEBACK ACCESS:     288803  HIT:     273681  MISS:      15122
LLC TRANSLATION ACCESS:         31  HIT:         23  MISS:          8
LLC PREFETCH  REQUESTED:          0  ISSUED:          0  USEFUL:          0  USELESS:          0
LLC AVERAGE MISS LATENCY: 554.271 cycles
Insertion Distribution: 
	LOAD 44317 0 0 0 31518 10596 
	RFO 35980 0 0 0 31409 11151 
	PREF 0 0 0 0 0 0 
	WRITEBACK 0 0 0 0 0 15194 
	 0 0 0 0 12 7 
Total Prefetch Downgrades: 0

DRAM Statistics
 CHANNEL 0
 RQ ROW_BUFFER_HIT:       8586  ROW_BUFFER_MISS:     124814
 DBUS AVG_CONGESTED_CYCLE:    3.97238
 WQ ROW_BUFFER_HIT:       7151  ROW_BUFFER_MISS:      83368  FULL:          0


CPU 0 Branch Prediction Accuracy: 89.4501% MPKI: 18.6246 Average ROB Occupancy at Mispredict: 32.5571
Branch type MPKI
BRANCH_DIRECT_JUMP: 3e-05
BRANCH_INDIRECT: 0
BRANCH_CONDITIONAL: 18.6246
BRANCH_DIRECT_CALL: 0
BRANCH_INDIRECT_CALL: 0
BRANCH_RETURN: 0

