
*** ChampSim Multicore Out-of-Order Simulator ***

Warmup Instructions: 10000000
Simulation Instructions: 100000000
Number of CPUs: 1
Off-chip DRAM Size: 4 GiB Channels: 1 Width: 64-bit Data Rate: 3200 MT/s

VirtualMemory physical capacity: 8588881920 num_ppages: 2096895
VirtualMemory page size: 4096 log2_page_size: 12

CPU 0 runs /datasets/cs240c-wi22-a00-public/data/Assignment2/libquantum_964B.trace.xz
CPU 0 Bimodal branch predictor
Basic BTB sets: 1024 ways: 8 indirect buffer size: 4096 RAS size: 64
Initialize SRRIP state
Heartbeat CPU 0 instructions: 10000001 cycles: 2500058 heartbeat IPC: 3.99991 cumulative IPC: 3.99991 (Simulation time: 0 hr 0 min 26 sec) 

Warmup complete CPU 0 instructions: 10000001 cycles: 2500058 (Simulation time: 0 hr 0 min 26 sec) 

Heartbeat CPU 0 instructions: 20000002 cycles: 18173092 heartbeat IPC: 0.638039 cumulative IPC: 0.638039 (Simulation time: 0 hr 1 min 25 sec) 
Heartbeat CPU 0 instructions: 30000004 cycles: 42874033 heartbeat IPC: 0.404843 cumulative IPC: 0.495369 (Simulation time: 0 hr 3 min 39 sec) 
Heartbeat CPU 0 instructions: 40000001 cycles: 63748870 heartbeat IPC: 0.479046 cumulative IPC: 0.489805 (Simulation time: 0 hr 5 min 59 sec) 
Heartbeat CPU 0 instructions: 50000003 cycles: 68753143 heartbeat IPC: 1.99829 cumulative IPC: 0.603746 (Simulation time: 0 hr 6 min 49 sec) 
Heartbeat CPU 0 instructions: 60000004 cycles: 79496581 heartbeat IPC: 0.930801 cumulative IPC: 0.64938 (Simulation time: 0 hr 7 min 43 sec) 
Heartbeat CPU 0 instructions: 70000003 cycles: 95131757 heartbeat IPC: 0.639583 cumulative IPC: 0.647726 (Simulation time: 0 hr 8 min 45 sec) 
Heartbeat CPU 0 instructions: 80000002 cycles: 122771573 heartbeat IPC: 0.361797 cumulative IPC: 0.582016 (Simulation time: 0 hr 11 min 23 sec) 
Heartbeat CPU 0 instructions: 90000001 cycles: 138636206 heartbeat IPC: 0.630333 cumulative IPC: 0.587647 (Simulation time: 0 hr 13 min 14 sec) 
Heartbeat CPU 0 instructions: 100000001 cycles: 143487246 heartbeat IPC: 2.06141 cumulative IPC: 0.638356 (Simulation time: 0 hr 13 min 59 sec) 
Heartbeat CPU 0 instructions: 110000003 cycles: 169144809 heartbeat IPC: 0.389749 cumulative IPC: 0.600079 (Simulation time: 0 hr 16 min 45 sec) 
Finished CPU 0 instructions: 100000002 cycles: 166644751 cumulative IPC: 0.600079 (Simulation time: 0 hr 16 min 45 sec) 

ChampSim completed all CPUs

Region of Interest Statistics

CPU 0 cumulative IPC: 0.600079 instructions: 100000002 cycles: 166644751
cpu0_DTLB TOTAL     ACCESS:    9071617  HIT:    9018619  MISS:      52998
cpu0_DTLB LOAD      ACCESS:    6195680  HIT:    6164490  MISS:      31190
cpu0_DTLB RFO       ACCESS:    2875937  HIT:    2854129  MISS:      21808
cpu0_DTLB PREFETCH  ACCESS:          0  HIT:          0  MISS:          0
cpu0_DTLB WRITEBACK ACCESS:          0  HIT:          0  MISS:          0
cpu0_DTLB TRANSLATION ACCESS:          0  HIT:          0  MISS:          0
cpu0_DTLB PREFETCH  REQUESTED:          0  ISSUED:          0  USEFUL:          0  USELESS:          0
cpu0_DTLB AVERAGE MISS LATENCY: 39.3184 cycles
cpu0_ITLB TOTAL     ACCESS:    1927048  HIT:    1927047  MISS:          1
cpu0_ITLB LOAD      ACCESS:    1927048  HIT:    1927047  MISS:          1
cpu0_ITLB RFO       ACCESS:          0  HIT:          0  MISS:          0
cpu0_ITLB PREFETCH  ACCESS:          0  HIT:          0  MISS:          0
cpu0_ITLB WRITEBACK ACCESS:          0  HIT:          0  MISS:          0
cpu0_ITLB TRANSLATION ACCESS:          0  HIT:          0  MISS:          0
cpu0_ITLB PREFETCH  REQUESTED:          0  ISSUED:          0  USEFUL:          0  USELESS:          0
cpu0_ITLB AVERAGE MISS LATENCY: 217 cycles
cpu0_L1I TOTAL     ACCESS:         11  HIT:          7  MISS:          4
cpu0_L1I LOAD      ACCESS:         11  HIT:          7  MISS:          4
cpu0_L1I RFO       ACCESS:          0  HIT:          0  MISS:          0
cpu0_L1I PREFETCH  ACCESS:          0  HIT:          0  MISS:          0
cpu0_L1I WRITEBACK ACCESS:          0  HIT:          0  MISS:          0
cpu0_L1I TRANSLATION ACCESS:          0  HIT:          0  MISS:          0
cpu0_L1I PREFETCH  REQUESTED:          0  ISSUED:          0  USEFUL:          0  USELESS:          0
cpu0_L1I AVERAGE MISS LATENCY: 236.75 cycles
cpu0_STLB TOTAL     ACCESS:      52999  HIT:          0  MISS:      52999
cpu0_STLB LOAD      ACCESS:      31191  HIT:          0  MISS:      31191
cpu0_STLB RFO       ACCESS:      21808  HIT:          0  MISS:      21808
cpu0_STLB PREFETCH  ACCESS:          0  HIT:          0  MISS:          0
cpu0_STLB WRITEBACK ACCESS:          0  HIT:          0  MISS:          0
cpu0_STLB TRANSLATION ACCESS:          0  HIT:          0  MISS:          0
cpu0_STLB PREFETCH  REQUESTED:          0  ISSUED:          0  USEFUL:          0  USELESS:          0
cpu0_STLB AVERAGE MISS LATENCY: 30.3218 cycles
cpu0_L1D TOTAL     ACCESS:    9384122  HIT:    5993683  MISS:    3390439
cpu0_L1D LOAD      ACCESS:    3615393  HIT:     225015  MISS:    3390378
cpu0_L1D RFO       ACCESS:    5715730  HIT:    5715706  MISS:         24
cpu0_L1D PREFETCH  ACCESS:          0  HIT:          0  MISS:          0
cpu0_L1D WRITEBACK ACCESS:          0  HIT:          0  MISS:          0
cpu0_L1D TRANSLATION ACCESS:      52999  HIT:      52962  MISS:         37
cpu0_L1D PREFETCH  REQUESTED:          0  ISSUED:          0  USEFUL:          0  USELESS:          0
cpu0_L1D AVERAGE MISS LATENCY: 422.06 cycles
cpu0_L2C TOTAL     ACCESS:    4919976  HIT:    1529533  MISS:    3390443
cpu0_L2C LOAD      ACCESS:    3390382  HIT:          0  MISS:    3390382
cpu0_L2C RFO       ACCESS:         24  HIT:          0  MISS:         24
cpu0_L2C PREFETCH  ACCESS:          0  HIT:          0  MISS:          0
cpu0_L2C WRITEBACK ACCESS:    1529533  HIT:    1529533  MISS:          0
cpu0_L2C TRANSLATION ACCESS:         37  HIT:          0  MISS:         37
cpu0_L2C PREFETCH  REQUESTED:          0  ISSUED:          0  USEFUL:          0  USELESS:          0
cpu0_L2C AVERAGE MISS LATENCY: 411.058 cycles
LLC TOTAL     ACCESS:    4913665  HIT:     264237  MISS:    4649428
LLC LOAD      ACCESS:    3390382  HIT:     183922  MISS:    3206460
LLC RFO       ACCESS:         24  HIT:          0  MISS:         24
LLC PREFETCH  ACCESS:          0  HIT:          0  MISS:          0
LLC WRITEBACK ACCESS:    1523222  HIT:      80294  MISS:    1442928
LLC TRANSLATION ACCESS:         37  HIT:         21  MISS:         16
LLC PREFETCH  REQUESTED:          0  ISSUED:          0  USEFUL:          0  USELESS:          0
LLC AVERAGE MISS LATENCY: 284.071 cycles
Insertion Distribution: 
	LOAD 19735 0 0 0 54450 3409276 
	RFO 0 0 0 0 28 0 
	PREF 0 0 0 0 0 0 
	WRITEBACK 0 0 0 0 0 1456184 
	 0 0 0 0 16 13 
Total Prefetch Downgrades: 0

DRAM Statistics
 CHANNEL 0
 RQ ROW_BUFFER_HIT:    1757317  ROW_BUFFER_MISS:    1449183
 DBUS AVG_CONGESTED_CYCLE:    3.89893
 WQ ROW_BUFFER_HIT:     254657  ROW_BUFFER_MISS:    1195166  FULL:     250810


CPU 0 Branch Prediction Accuracy: 98.7463% MPKI: 2.70066 Average ROB Occupancy at Mispredict: 44.7783
Branch type MPKI
BRANCH_DIRECT_JUMP: 1e-05
BRANCH_INDIRECT: 0
BRANCH_CONDITIONAL: 2.70053
BRANCH_DIRECT_CALL: 6e-05
BRANCH_INDIRECT_CALL: 0
BRANCH_RETURN: 6e-05

