
*** ChampSim Multicore Out-of-Order Simulator ***

Warmup Instructions: 10000000
Simulation Instructions: 100000000
Number of CPUs: 1
Off-chip DRAM Size: 4 GiB Channels: 1 Width: 64-bit Data Rate: 3200 MT/s

VirtualMemory physical capacity: 8588881920 num_ppages: 2096895
VirtualMemory page size: 4096 log2_page_size: 12

CPU 0 runs /datasets/cs240c-wi22-a00-public/data/Assignment2/mcf_158B.trace.xz
CPU 0 Bimodal branch predictor
Basic BTB sets: 1024 ways: 8 indirect buffer size: 4096 RAS size: 64
Initialize SRRIP state
Heartbeat CPU 0 instructions: 10000002 cycles: 3864090 heartbeat IPC: 2.58793 cumulative IPC: 2.58793 (Simulation time: 0 hr 0 min 57 sec) 

Warmup complete CPU 0 instructions: 10000002 cycles: 3864090 (Simulation time: 0 hr 0 min 57 sec) 

Heartbeat CPU 0 instructions: 20000000 cycles: 136580648 heartbeat IPC: 0.0753485 cumulative IPC: 0.0753485 (Simulation time: 0 hr 4 min 45 sec) 
Heartbeat CPU 0 instructions: 30000000 cycles: 263204292 heartbeat IPC: 0.0789742 cumulative IPC: 0.0771188 (Simulation time: 0 hr 8 min 23 sec) 
Heartbeat CPU 0 instructions: 40000001 cycles: 387388225 heartbeat IPC: 0.0805257 cumulative IPC: 0.0782219 (Simulation time: 0 hr 11 min 59 sec) 
Heartbeat CPU 0 instructions: 50000000 cycles: 501924808 heartbeat IPC: 0.0873083 cumulative IPC: 0.0803115 (Simulation time: 0 hr 15 min 15 sec) 
Heartbeat CPU 0 instructions: 60000000 cycles: 612182161 heartbeat IPC: 0.0906969 cumulative IPC: 0.0821938 (Simulation time: 0 hr 18 min 25 sec) 
Heartbeat CPU 0 instructions: 70000002 cycles: 720128259 heartbeat IPC: 0.0926388 cumulative IPC: 0.083768 (Simulation time: 0 hr 21 min 33 sec) 
Heartbeat CPU 0 instructions: 80000000 cycles: 830538650 heartbeat IPC: 0.0905712 cumulative IPC: 0.0846766 (Simulation time: 0 hr 24 min 48 sec) 
Heartbeat CPU 0 instructions: 90000003 cycles: 944669051 heartbeat IPC: 0.0876191 cumulative IPC: 0.0850336 (Simulation time: 0 hr 28 min 11 sec) 
Heartbeat CPU 0 instructions: 100000003 cycles: 1060616460 heartbeat IPC: 0.086246 cumulative IPC: 0.0851666 (Simulation time: 0 hr 31 min 36 sec) 
Heartbeat CPU 0 instructions: 110000001 cycles: 1177897479 heartbeat IPC: 0.0852653 cumulative IPC: 0.0851765 (Simulation time: 0 hr 35 min 5 sec) 
Finished CPU 0 instructions: 100000002 cycles: 1174033390 cumulative IPC: 0.0851765 (Simulation time: 0 hr 35 min 5 sec) 

ChampSim completed all CPUs

Region of Interest Statistics

CPU 0 cumulative IPC: 0.0851765 instructions: 100000002 cycles: 1174033390
cpu0_DTLB TOTAL     ACCESS:   23549773  HIT:   12728166  MISS:   10821607
cpu0_DTLB LOAD      ACCESS:   20430718  HIT:    9976133  MISS:   10454585
cpu0_DTLB RFO       ACCESS:    3119055  HIT:    2752033  MISS:     367022
cpu0_DTLB PREFETCH  ACCESS:          0  HIT:          0  MISS:          0
cpu0_DTLB WRITEBACK ACCESS:          0  HIT:          0  MISS:          0
cpu0_DTLB TRANSLATION ACCESS:          0  HIT:          0  MISS:          0
cpu0_DTLB PREFETCH  REQUESTED:          0  ISSUED:          0  USEFUL:          0  USELESS:          0
cpu0_DTLB AVERAGE MISS LATENCY: 11.034 cycles
cpu0_ITLB TOTAL     ACCESS:   12963293  HIT:   12963293  MISS:          0
cpu0_ITLB LOAD      ACCESS:   12963293  HIT:   12963293  MISS:          0
cpu0_ITLB RFO       ACCESS:          0  HIT:          0  MISS:          0
cpu0_ITLB PREFETCH  ACCESS:          0  HIT:          0  MISS:          0
cpu0_ITLB WRITEBACK ACCESS:          0  HIT:          0  MISS:          0
cpu0_ITLB TRANSLATION ACCESS:          0  HIT:          0  MISS:          0
cpu0_ITLB PREFETCH  REQUESTED:          0  ISSUED:          0  USEFUL:          0  USELESS:          0
cpu0_ITLB AVERAGE MISS LATENCY: -nan cycles
cpu0_L1I TOTAL     ACCESS:         19  HIT:         14  MISS:          5
cpu0_L1I LOAD      ACCESS:         19  HIT:         14  MISS:          5
cpu0_L1I RFO       ACCESS:          0  HIT:          0  MISS:          0
cpu0_L1I PREFETCH  ACCESS:          0  HIT:          0  MISS:          0
cpu0_L1I WRITEBACK ACCESS:          0  HIT:          0  MISS:          0
cpu0_L1I TRANSLATION ACCESS:          0  HIT:          0  MISS:          0
cpu0_L1I PREFETCH  REQUESTED:          0  ISSUED:          0  USEFUL:          0  USELESS:          0
cpu0_L1I AVERAGE MISS LATENCY: 194.2 cycles
cpu0_STLB TOTAL     ACCESS:   10821607  HIT:    9710311  MISS:    1111296
cpu0_STLB LOAD      ACCESS:   10454585  HIT:    9350054  MISS:    1104531
cpu0_STLB RFO       ACCESS:     367022  HIT:     360257  MISS:       6765
cpu0_STLB PREFETCH  ACCESS:          0  HIT:          0  MISS:          0
cpu0_STLB WRITEBACK ACCESS:          0  HIT:          0  MISS:          0
cpu0_STLB TRANSLATION ACCESS:          0  HIT:          0  MISS:          0
cpu0_STLB PREFETCH  REQUESTED:          0  ISSUED:          0  USEFUL:          0  USELESS:          0
cpu0_STLB AVERAGE MISS LATENCY: 19.7687 cycles
cpu0_L1D TOTAL     ACCESS:   27613285  HIT:   14069163  MISS:   13544122
cpu0_L1D LOAD      ACCESS:   22266494  HIT:    9096540  MISS:   13169954
cpu0_L1D RFO       ACCESS:    4239046  HIT:    4033917  MISS:     205129
cpu0_L1D PREFETCH  ACCESS:          0  HIT:          0  MISS:          0
cpu0_L1D WRITEBACK ACCESS:          0  HIT:          0  MISS:          0
cpu0_L1D TRANSLATION ACCESS:    1107745  HIT:     938706  MISS:     169039
cpu0_L1D PREFETCH  REQUESTED:          0  ISSUED:          0  USEFUL:          0  USELESS:          0
cpu0_L1D AVERAGE MISS LATENCY: 154.598 cycles
cpu0_L2C TOTAL     ACCESS:   15653603  HIT:    6140441  MISS:    9513162
cpu0_L2C LOAD      ACCESS:   13169593  HIT:    3841655  MISS:    9327938
cpu0_L2C RFO       ACCESS:     205123  HIT:      71865  MISS:     133258
cpu0_L2C PREFETCH  ACCESS:          0  HIT:          0  MISS:          0
cpu0_L2C WRITEBACK ACCESS:    2109848  HIT:    2109495  MISS:        353
cpu0_L2C TRANSLATION ACCESS:     169039  HIT:     117426  MISS:      51613
cpu0_L2C PREFETCH  REQUESTED:          0  ISSUED:          0  USEFUL:          0  USELESS:          0
cpu0_L2C AVERAGE MISS LATENCY: 204.371 cycles
LLC TOTAL     ACCESS:   11019836  HIT:    4721773  MISS:    6298063
LLC LOAD      ACCESS:    9327937  HIT:    3685553  MISS:    5642384
LLC RFO       ACCESS:     133258  HIT:      79198  MISS:      54060
LLC PREFETCH  ACCESS:          0  HIT:          0  MISS:          0
LLC WRITEBACK ACCESS:    1507028  HIT:     912411  MISS:     594617
LLC TRANSLATION ACCESS:      51613  HIT:      44611  MISS:       7002
LLC PREFETCH  REQUESTED:          0  ISSUED:          0  USEFUL:          0  USELESS:          0
LLC AVERAGE MISS LATENCY: 276.982 cycles
Insertion Distribution: 
	LOAD 159781 0 0 0 114835 6056933 
	RFO 7004 0 0 0 7533 42001 
	PREF 0 0 0 0 0 0 
	WRITEBACK 0 0 0 0 0 618970 
	 4 0 0 0 239 7765 
Total Prefetch Downgrades: 0

DRAM Statistics
 CHANNEL 0
 RQ ROW_BUFFER_HIT:      10679  ROW_BUFFER_MISS:    5692367
 DBUS AVG_CONGESTED_CYCLE:    3.95139
 WQ ROW_BUFFER_HIT:      39314  ROW_BUFFER_MISS:     683340  FULL:          0


CPU 0 Branch Prediction Accuracy: 85.5988% MPKI: 40.2398 Average ROB Occupancy at Mispredict: 17.2349
Branch type MPKI
BRANCH_DIRECT_JUMP: 4e-05
BRANCH_INDIRECT: 0
BRANCH_CONDITIONAL: 40.2397
BRANCH_DIRECT_CALL: 0
BRANCH_INDIRECT_CALL: 0
BRANCH_RETURN: 0

