
*** ChampSim Multicore Out-of-Order Simulator ***

Warmup Instructions: 10000000
Simulation Instructions: 100000000
Number of CPUs: 1
Off-chip DRAM Size: 4 GiB Channels: 1 Width: 64-bit Data Rate: 3200 MT/s

VirtualMemory physical capacity: 8588881920 num_ppages: 2096895
VirtualMemory page size: 4096 log2_page_size: 12

CPU 0 runs /datasets/cs240c-wi22-a00-public/data/Assignment2/mcf_250B.trace.xz
CPU 0 Bimodal branch predictor
Basic BTB sets: 1024 ways: 8 indirect buffer size: 4096 RAS size: 64
Initialize SRRIP state
Heartbeat CPU 0 instructions: 10000004 cycles: 3834266 heartbeat IPC: 2.60806 cumulative IPC: 2.60806 (Simulation time: 0 hr 0 min 59 sec) 

Warmup complete CPU 0 instructions: 10000004 cycles: 3834266 (Simulation time: 0 hr 0 min 59 sec) 

Heartbeat CPU 0 instructions: 20000000 cycles: 146268211 heartbeat IPC: 0.070208 cumulative IPC: 0.070208 (Simulation time: 0 hr 5 min 16 sec) 
Heartbeat CPU 0 instructions: 30000000 cycles: 284432141 heartbeat IPC: 0.0723778 cumulative IPC: 0.0712764 (Simulation time: 0 hr 9 min 26 sec) 
Heartbeat CPU 0 instructions: 40000000 cycles: 429782904 heartbeat IPC: 0.0687991 cumulative IPC: 0.070431 (Simulation time: 0 hr 13 min 30 sec) 
Heartbeat CPU 0 instructions: 50000000 cycles: 570651826 heartbeat IPC: 0.070988 cumulative IPC: 0.0705694 (Simulation time: 0 hr 17 min 36 sec) 
Heartbeat CPU 0 instructions: 60000000 cycles: 711641944 heartbeat IPC: 0.070927 cumulative IPC: 0.0706407 (Simulation time: 0 hr 21 min 47 sec) 
Heartbeat CPU 0 instructions: 70000000 cycles: 845517184 heartbeat IPC: 0.0746964 cumulative IPC: 0.0712857 (Simulation time: 0 hr 25 min 59 sec) 
Heartbeat CPU 0 instructions: 80000000 cycles: 988944279 heartbeat IPC: 0.0697218 cumulative IPC: 0.071058 (Simulation time: 0 hr 30 min 26 sec) 
Heartbeat CPU 0 instructions: 90000000 cycles: 1110845956 heartbeat IPC: 0.0820333 cumulative IPC: 0.0722666 (Simulation time: 0 hr 34 min 16 sec) 
Heartbeat CPU 0 instructions: 100000000 cycles: 1246868128 heartbeat IPC: 0.0735174 cumulative IPC: 0.0724035 (Simulation time: 0 hr 38 min 29 sec) 
Heartbeat CPU 0 instructions: 110000000 cycles: 1389480333 heartbeat IPC: 0.0701202 cumulative IPC: 0.0721685 (Simulation time: 0 hr 42 min 53 sec) 
Finished CPU 0 instructions: 100000000 cycles: 1385646078 cumulative IPC: 0.0721685 (Simulation time: 0 hr 42 min 53 sec) 

ChampSim completed all CPUs

Region of Interest Statistics

CPU 0 cumulative IPC: 0.0721685 instructions: 100000000 cycles: 1385646078
cpu0_DTLB TOTAL     ACCESS:   20767145  HIT:    2976872  MISS:   17790273
cpu0_DTLB LOAD      ACCESS:   20271765  HIT:    2537383  MISS:   17734382
cpu0_DTLB RFO       ACCESS:     495380  HIT:     439489  MISS:      55891
cpu0_DTLB PREFETCH  ACCESS:          0  HIT:          0  MISS:          0
cpu0_DTLB WRITEBACK ACCESS:          0  HIT:          0  MISS:          0
cpu0_DTLB TRANSLATION ACCESS:          0  HIT:          0  MISS:          0
cpu0_DTLB PREFETCH  REQUESTED:          0  ISSUED:          0  USEFUL:          0  USELESS:          0
cpu0_DTLB AVERAGE MISS LATENCY: 10.4639 cycles
cpu0_ITLB TOTAL     ACCESS:   11316106  HIT:   11316106  MISS:          0
cpu0_ITLB LOAD      ACCESS:   11316106  HIT:   11316106  MISS:          0
cpu0_ITLB RFO       ACCESS:          0  HIT:          0  MISS:          0
cpu0_ITLB PREFETCH  ACCESS:          0  HIT:          0  MISS:          0
cpu0_ITLB WRITEBACK ACCESS:          0  HIT:          0  MISS:          0
cpu0_ITLB TRANSLATION ACCESS:          0  HIT:          0  MISS:          0
cpu0_ITLB PREFETCH  REQUESTED:          0  ISSUED:          0  USEFUL:          0  USELESS:          0
cpu0_ITLB AVERAGE MISS LATENCY: -nan cycles
cpu0_L1I TOTAL     ACCESS:          4  HIT:          4  MISS:          0
cpu0_L1I LOAD      ACCESS:          4  HIT:          4  MISS:          0
cpu0_L1I RFO       ACCESS:          0  HIT:          0  MISS:          0
cpu0_L1I PREFETCH  ACCESS:          0  HIT:          0  MISS:          0
cpu0_L1I WRITEBACK ACCESS:          0  HIT:          0  MISS:          0
cpu0_L1I TRANSLATION ACCESS:          0  HIT:          0  MISS:          0
cpu0_L1I PREFETCH  REQUESTED:          0  ISSUED:          0  USEFUL:          0  USELESS:          0
cpu0_L1I AVERAGE MISS LATENCY: -nan cycles
cpu0_STLB TOTAL     ACCESS:   17790273  HIT:   17413105  MISS:     377168
cpu0_STLB LOAD      ACCESS:   17734382  HIT:   17359351  MISS:     375031
cpu0_STLB RFO       ACCESS:      55891  HIT:      53754  MISS:       2137
cpu0_STLB PREFETCH  ACCESS:          0  HIT:          0  MISS:          0
cpu0_STLB WRITEBACK ACCESS:          0  HIT:          0  MISS:          0
cpu0_STLB TRANSLATION ACCESS:          0  HIT:          0  MISS:          0
cpu0_STLB PREFETCH  REQUESTED:          0  ISSUED:          0  USEFUL:          0  USELESS:          0
cpu0_STLB AVERAGE MISS LATENCY: 69.0229 cycles
cpu0_L1D TOTAL     ACCESS:   21385143  HIT:    3441226  MISS:   17943917
cpu0_L1D LOAD      ACCESS:   20344304  HIT:    2560319  MISS:   17783985
cpu0_L1D RFO       ACCESS:     664702  HIT:     633042  MISS:      31660
cpu0_L1D PREFETCH  ACCESS:          0  HIT:          0  MISS:          0
cpu0_L1D WRITEBACK ACCESS:          0  HIT:          0  MISS:          0
cpu0_L1D TRANSLATION ACCESS:     376137  HIT:     247865  MISS:     128272
cpu0_L1D PREFETCH  REQUESTED:          0  ISSUED:          0  USEFUL:          0  USELESS:          0
cpu0_L1D AVERAGE MISS LATENCY: 228.684 cycles
cpu0_L2C TOTAL     ACCESS:   18302952  HIT:    5792757  MISS:   12510195
cpu0_L2C LOAD      ACCESS:   17783958  HIT:    5386668  MISS:   12397290
cpu0_L2C RFO       ACCESS:      31659  HIT:       9149  MISS:      22510
cpu0_L2C PREFETCH  ACCESS:          0  HIT:          0  MISS:          0
cpu0_L2C WRITEBACK ACCESS:     359063  HIT:     359061  MISS:          2
cpu0_L2C TRANSLATION ACCESS:     128272  HIT:      37879  MISS:      90393
cpu0_L2C PREFETCH  REQUESTED:          0  ISSUED:          0  USEFUL:          0  USELESS:          0
cpu0_L2C AVERAGE MISS LATENCY: 312.222 cycles
LLC TOTAL     ACCESS:   12800559  HIT:    5892567  MISS:    6907992
LLC LOAD      ACCESS:   12397290  HIT:    5608197  MISS:    6789093
LLC RFO       ACCESS:      22510  HIT:      14217  MISS:       8293
LLC PREFETCH  ACCESS:          0  HIT:          0  MISS:          0
LLC WRITEBACK ACCESS:     290366  HIT:     183731  MISS:     106635
LLC TRANSLATION ACCESS:      90393  HIT:      86422  MISS:       3971
LLC PREFETCH  REQUESTED:          0  ISSUED:          0  USEFUL:          0  USELESS:          0
LLC AVERAGE MISS LATENCY: 527.395 cycles
Insertion Distribution: 
	LOAD 94086 0 0 0 100755 7299507 
	RFO 4367 0 0 0 5634 2044 
	PREF 0 0 0 0 0 0 
	WRITEBACK 0 0 0 0 0 148925 
	 4 0 0 0 138 4451 
Total Prefetch Downgrades: 0

DRAM Statistics
 CHANNEL 0
 RQ ROW_BUFFER_HIT:       2860  ROW_BUFFER_MISS:    6798417
 DBUS AVG_CONGESTED_CYCLE:    3.96486
 WQ ROW_BUFFER_HIT:      10805  ROW_BUFFER_MISS:     136976  FULL:          0


CPU 0 Branch Prediction Accuracy: 91.6559% MPKI: 25.5287 Average ROB Occupancy at Mispredict: 24.497
Branch type MPKI
BRANCH_DIRECT_JUMP: 2e-05
BRANCH_INDIRECT: 0
BRANCH_CONDITIONAL: 25.5287
BRANCH_DIRECT_CALL: 0
BRANCH_INDIRECT_CALL: 0
BRANCH_RETURN: 0

