
*** ChampSim Multicore Out-of-Order Simulator ***

Warmup Instructions: 10000000
Simulation Instructions: 100000000
Number of CPUs: 1
Off-chip DRAM Size: 4 GiB Channels: 1 Width: 64-bit Data Rate: 3200 MT/s

VirtualMemory physical capacity: 8588881920 num_ppages: 2096895
VirtualMemory page size: 4096 log2_page_size: 12

CPU 0 runs /datasets/cs240c-wi22-a00-public/data/Assignment2/perlbench_53B.trace.xz
CPU 0 Bimodal branch predictor
Basic BTB sets: 1024 ways: 8 indirect buffer size: 4096 RAS size: 64
Initialize SRRIP state
Heartbeat CPU 0 instructions: 10000000 cycles: 2503714 heartbeat IPC: 3.99407 cumulative IPC: 3.99407 (Simulation time: 0 hr 0 min 36 sec) 

Warmup complete CPU 0 instructions: 10000004 cycles: 2503715 (Simulation time: 0 hr 0 min 36 sec) 

Heartbeat CPU 0 instructions: 20000001 cycles: 15163973 heartbeat IPC: 0.789873 cumulative IPC: 0.789873 (Simulation time: 0 hr 1 min 25 sec) 
Heartbeat CPU 0 instructions: 30000001 cycles: 25171622 heartbeat IPC: 0.999236 cumulative IPC: 0.882305 (Simulation time: 0 hr 2 min 12 sec) 
Heartbeat CPU 0 instructions: 40000004 cycles: 37126677 heartbeat IPC: 0.836466 cumulative IPC: 0.866477 (Simulation time: 0 hr 2 min 59 sec) 
Heartbeat CPU 0 instructions: 50000001 cycles: 48302716 heartbeat IPC: 0.894771 cumulative IPC: 0.873381 (Simulation time: 0 hr 3 min 45 sec) 
Heartbeat CPU 0 instructions: 60000004 cycles: 61319485 heartbeat IPC: 0.76824 cumulative IPC: 0.850112 (Simulation time: 0 hr 4 min 35 sec) 
Heartbeat CPU 0 instructions: 70000004 cycles: 75100899 heartbeat IPC: 0.725615 cumulative IPC: 0.826478 (Simulation time: 0 hr 5 min 27 sec) 
Heartbeat CPU 0 instructions: 80000004 cycles: 88812818 heartbeat IPC: 0.729293 cumulative IPC: 0.811038 (Simulation time: 0 hr 6 min 20 sec) 
Heartbeat CPU 0 instructions: 90000001 cycles: 101499301 heartbeat IPC: 0.78824 cumulative IPC: 0.808117 (Simulation time: 0 hr 7 min 10 sec) 
Heartbeat CPU 0 instructions: 100000003 cycles: 115349524 heartbeat IPC: 0.72201 cumulative IPC: 0.797548 (Simulation time: 0 hr 8 min 3 sec) 
Heartbeat CPU 0 instructions: 110000002 cycles: 127628001 heartbeat IPC: 0.814433 cumulative IPC: 0.799205 (Simulation time: 0 hr 8 min 52 sec) 
Finished CPU 0 instructions: 100000000 cycles: 125124287 cumulative IPC: 0.799205 (Simulation time: 0 hr 8 min 52 sec) 

ChampSim completed all CPUs

Region of Interest Statistics

CPU 0 cumulative IPC: 0.799205 instructions: 100000000 cycles: 125124287
cpu0_DTLB TOTAL     ACCESS:   24814670  HIT:   24162095  MISS:     652575
cpu0_DTLB LOAD      ACCESS:   16193386  HIT:   15631574  MISS:     561812
cpu0_DTLB RFO       ACCESS:    8621284  HIT:    8530521  MISS:      90763
cpu0_DTLB PREFETCH  ACCESS:          0  HIT:          0  MISS:          0
cpu0_DTLB WRITEBACK ACCESS:          0  HIT:          0  MISS:          0
cpu0_DTLB TRANSLATION ACCESS:          0  HIT:          0  MISS:          0
cpu0_DTLB PREFETCH  REQUESTED:          0  ISSUED:          0  USEFUL:          0  USELESS:          0
cpu0_DTLB AVERAGE MISS LATENCY: 9.26109 cycles
cpu0_ITLB TOTAL     ACCESS:    8010921  HIT:    7934336  MISS:      76585
cpu0_ITLB LOAD      ACCESS:    8010921  HIT:    7934336  MISS:      76585
cpu0_ITLB RFO       ACCESS:          0  HIT:          0  MISS:          0
cpu0_ITLB PREFETCH  ACCESS:          0  HIT:          0  MISS:          0
cpu0_ITLB WRITEBACK ACCESS:          0  HIT:          0  MISS:          0
cpu0_ITLB TRANSLATION ACCESS:          0  HIT:          0  MISS:          0
cpu0_ITLB PREFETCH  REQUESTED:          0  ISSUED:          0  USEFUL:          0  USELESS:          0
cpu0_ITLB AVERAGE MISS LATENCY: 9.11634 cycles
cpu0_L1I TOTAL     ACCESS:   11821343  HIT:   11145146  MISS:     676197
cpu0_L1I LOAD      ACCESS:   11821343  HIT:   11145146  MISS:     676197
cpu0_L1I RFO       ACCESS:          0  HIT:          0  MISS:          0
cpu0_L1I PREFETCH  ACCESS:          0  HIT:          0  MISS:          0
cpu0_L1I WRITEBACK ACCESS:          0  HIT:          0  MISS:          0
cpu0_L1I TRANSLATION ACCESS:          0  HIT:          0  MISS:          0
cpu0_L1I PREFETCH  REQUESTED:          0  ISSUED:          0  USEFUL:          0  USELESS:          0
cpu0_L1I AVERAGE MISS LATENCY: 12.112 cycles
cpu0_STLB TOTAL     ACCESS:     729160  HIT:     723347  MISS:       5813
cpu0_STLB LOAD      ACCESS:     638397  HIT:     633280  MISS:       5117
cpu0_STLB RFO       ACCESS:      90763  HIT:      90067  MISS:        696
cpu0_STLB PREFETCH  ACCESS:          0  HIT:          0  MISS:          0
cpu0_STLB WRITEBACK ACCESS:          0  HIT:          0  MISS:          0
cpu0_STLB TRANSLATION ACCESS:          0  HIT:          0  MISS:          0
cpu0_STLB PREFETCH  REQUESTED:          0  ISSUED:          0  USEFUL:          0  USELESS:          0
cpu0_STLB AVERAGE MISS LATENCY: 30.0896 cycles
cpu0_L1D TOTAL     ACCESS:   31988491  HIT:   31030748  MISS:     957743
cpu0_L1D LOAD      ACCESS:   17000311  HIT:   16127582  MISS:     872729
cpu0_L1D RFO       ACCESS:   14982410  HIT:   14898674  MISS:      83736
cpu0_L1D PREFETCH  ACCESS:          0  HIT:          0  MISS:          0
cpu0_L1D WRITEBACK ACCESS:          0  HIT:          0  MISS:          0
cpu0_L1D TRANSLATION ACCESS:       5770  HIT:       4492  MISS:       1278
cpu0_L1D PREFETCH  REQUESTED:          0  ISSUED:          0  USEFUL:          0  USELESS:          0
cpu0_L1D AVERAGE MISS LATENCY: 16.7982 cycles
cpu0_L2C TOTAL     ACCESS:    1881699  HIT:    1715440  MISS:     166259
cpu0_L2C LOAD      ACCESS:    1548913  HIT:    1404582  MISS:     144331
cpu0_L2C RFO       ACCESS:      83730  HIT:      62404  MISS:      21326
cpu0_L2C PREFETCH  ACCESS:          0  HIT:          0  MISS:          0
cpu0_L2C WRITEBACK ACCESS:     247778  HIT:     247302  MISS:        476
cpu0_L2C TRANSLATION ACCESS:       1278  HIT:       1152  MISS:        126
cpu0_L2C PREFETCH  REQUESTED:          0  ISSUED:          0  USEFUL:          0  USELESS:          0
cpu0_L2C AVERAGE MISS LATENCY: 37.7671 cycles
LLC TOTAL     ACCESS:     213733  HIT:     194161  MISS:      19572
LLC LOAD      ACCESS:     144331  HIT:     130649  MISS:      13682
LLC RFO       ACCESS:      21326  HIT:      16315  MISS:       5011
LLC PREFETCH  ACCESS:          0  HIT:          0  MISS:          0
LLC WRITEBACK ACCESS:      47950  HIT:      47084  MISS:        866
LLC TRANSLATION ACCESS:        126  HIT:        113  MISS:         13
LLC PREFETCH  REQUESTED:          0  ISSUED:          0  USEFUL:          0  USELESS:          0
LLC AVERAGE MISS LATENCY: 142.942 cycles
Insertion Distribution: 
	LOAD 5350 0 0 0 27404 258 
	RFO 1165 0 0 0 5730 95 
	PREF 0 0 0 0 0 0 
	WRITEBACK 0 0 0 0 0 866 
	 4 0 0 0 30 0 
Total Prefetch Downgrades: 0

DRAM Statistics
 CHANNEL 0
 RQ ROW_BUFFER_HIT:       3764  ROW_BUFFER_MISS:      14913
 DBUS AVG_CONGESTED_CYCLE:    3.85041
 WQ ROW_BUFFER_HIT:        852  ROW_BUFFER_MISS:       2697  FULL:          0


CPU 0 Branch Prediction Accuracy: 94.2848% MPKI: 12.6658 Average ROB Occupancy at Mispredict: 36.2921
Branch type MPKI
BRANCH_DIRECT_JUMP: 0.00232
BRANCH_INDIRECT: 0.81431
BRANCH_CONDITIONAL: 10.3853
BRANCH_DIRECT_CALL: 0.00236
BRANCH_INDIRECT_CALL: 1.44344
BRANCH_RETURN: 0.01802

