
*** ChampSim Multicore Out-of-Order Simulator ***

Warmup Instructions: 10000000
Simulation Instructions: 100000000
Number of CPUs: 1
Off-chip DRAM Size: 4 GiB Channels: 1 Width: 64-bit Data Rate: 3200 MT/s

VirtualMemory physical capacity: 8588881920 num_ppages: 2096895
VirtualMemory page size: 4096 log2_page_size: 12

CPU 0 runs /datasets/cs240c-wi22-a00-public/data/Assignment2/sphinx3_883B.trace.xz
CPU 0 Bimodal branch predictor
Basic BTB sets: 1024 ways: 8 indirect buffer size: 4096 RAS size: 64
Initialize SRRIP state
Heartbeat CPU 0 instructions: 10000004 cycles: 2628880 heartbeat IPC: 3.8039 cumulative IPC: 3.8039 (Simulation time: 0 hr 0 min 34 sec) 

Warmup complete CPU 0 instructions: 10000004 cycles: 2628880 (Simulation time: 0 hr 0 min 34 sec) 

Heartbeat CPU 0 instructions: 20000002 cycles: 14792861 heartbeat IPC: 0.822099 cumulative IPC: 0.822099 (Simulation time: 0 hr 1 min 40 sec) 
Heartbeat CPU 0 instructions: 30000001 cycles: 27286406 heartbeat IPC: 0.800413 cumulative IPC: 0.811111 (Simulation time: 0 hr 2 min 47 sec) 
Heartbeat CPU 0 instructions: 40000004 cycles: 39118342 heartbeat IPC: 0.84517 cumulative IPC: 0.822155 (Simulation time: 0 hr 3 min 50 sec) 
Heartbeat CPU 0 instructions: 50000003 cycles: 50688368 heartbeat IPC: 0.864302 cumulative IPC: 0.832302 (Simulation time: 0 hr 4 min 54 sec) 
Heartbeat CPU 0 instructions: 60000000 cycles: 61503379 heartbeat IPC: 0.92464 cumulative IPC: 0.849264 (Simulation time: 0 hr 6 min 0 sec) 
Heartbeat CPU 0 instructions: 70000001 cycles: 70360404 heartbeat IPC: 1.12905 cumulative IPC: 0.88585 (Simulation time: 0 hr 6 min 56 sec) 
Heartbeat CPU 0 instructions: 80000004 cycles: 80641575 heartbeat IPC: 0.972652 cumulative IPC: 0.89729 (Simulation time: 0 hr 7 min 58 sec) 
Heartbeat CPU 0 instructions: 90000002 cycles: 88825798 heartbeat IPC: 1.22186 cumulative IPC: 0.928107 (Simulation time: 0 hr 8 min 51 sec) 
Heartbeat CPU 0 instructions: 100000003 cycles: 96524396 heartbeat IPC: 1.29894 cumulative IPC: 0.958512 (Simulation time: 0 hr 9 min 43 sec) 
Heartbeat CPU 0 instructions: 110000003 cycles: 106210862 heartbeat IPC: 1.03237 cumulative IPC: 0.965419 (Simulation time: 0 hr 10 min 41 sec) 
Finished CPU 0 instructions: 100000004 cycles: 103581983 cumulative IPC: 0.965419 (Simulation time: 0 hr 10 min 41 sec) 

ChampSim completed all CPUs

Region of Interest Statistics

CPU 0 cumulative IPC: 0.965419 instructions: 100000004 cycles: 103581983
cpu0_DTLB TOTAL     ACCESS:   16749097  HIT:   16589124  MISS:     159973
cpu0_DTLB LOAD      ACCESS:   15414640  HIT:   15262925  MISS:     151715
cpu0_DTLB RFO       ACCESS:    1334457  HIT:    1326199  MISS:       8258
cpu0_DTLB PREFETCH  ACCESS:          0  HIT:          0  MISS:          0
cpu0_DTLB WRITEBACK ACCESS:          0  HIT:          0  MISS:          0
cpu0_DTLB TRANSLATION ACCESS:          0  HIT:          0  MISS:          0
cpu0_DTLB PREFETCH  REQUESTED:          0  ISSUED:          0  USEFUL:          0  USELESS:          0
cpu0_DTLB AVERAGE MISS LATENCY: 12.8148 cycles
cpu0_ITLB TOTAL     ACCESS:    9391742  HIT:    9391677  MISS:         65
cpu0_ITLB LOAD      ACCESS:    9391742  HIT:    9391677  MISS:         65
cpu0_ITLB RFO       ACCESS:          0  HIT:          0  MISS:          0
cpu0_ITLB PREFETCH  ACCESS:          0  HIT:          0  MISS:          0
cpu0_ITLB WRITEBACK ACCESS:          0  HIT:          0  MISS:          0
cpu0_ITLB TRANSLATION ACCESS:          0  HIT:          0  MISS:          0
cpu0_ITLB PREFETCH  REQUESTED:          0  ISSUED:          0  USEFUL:          0  USELESS:          0
cpu0_ITLB AVERAGE MISS LATENCY: 154.754 cycles
cpu0_L1I TOTAL     ACCESS:     192336  HIT:     190956  MISS:       1380
cpu0_L1I LOAD      ACCESS:     192336  HIT:     190956  MISS:       1380
cpu0_L1I RFO       ACCESS:          0  HIT:          0  MISS:          0
cpu0_L1I PREFETCH  ACCESS:          0  HIT:          0  MISS:          0
cpu0_L1I WRITEBACK ACCESS:          0  HIT:          0  MISS:          0
cpu0_L1I TRANSLATION ACCESS:          0  HIT:          0  MISS:          0
cpu0_L1I PREFETCH  REQUESTED:          0  ISSUED:          0  USEFUL:          0  USELESS:          0
cpu0_L1I AVERAGE MISS LATENCY: 198.524 cycles
cpu0_STLB TOTAL     ACCESS:     160038  HIT:      99142  MISS:      60896
cpu0_STLB LOAD      ACCESS:     151780  HIT:      92104  MISS:      59676
cpu0_STLB RFO       ACCESS:       8258  HIT:       7038  MISS:       1220
cpu0_STLB PREFETCH  ACCESS:          0  HIT:          0  MISS:          0
cpu0_STLB WRITEBACK ACCESS:          0  HIT:          0  MISS:          0
cpu0_STLB TRANSLATION ACCESS:          0  HIT:          0  MISS:          0
cpu0_STLB PREFETCH  REQUESTED:          0  ISSUED:          0  USEFUL:          0  USELESS:          0
cpu0_STLB AVERAGE MISS LATENCY: 10.0514 cycles
cpu0_L1D TOTAL     ACCESS:   12841651  HIT:   11092339  MISS:    1749312
cpu0_L1D LOAD      ACCESS:   10607451  HIT:    8973066  MISS:    1634385
cpu0_L1D RFO       ACCESS:    2176089  HIT:    2061956  MISS:     114133
cpu0_L1D PREFETCH  ACCESS:          0  HIT:          0  MISS:          0
cpu0_L1D WRITEBACK ACCESS:          0  HIT:          0  MISS:          0
cpu0_L1D TRANSLATION ACCESS:      58111  HIT:      57317  MISS:        794
cpu0_L1D PREFETCH  REQUESTED:          0  ISSUED:          0  USEFUL:          0  USELESS:          0
cpu0_L1D AVERAGE MISS LATENCY: 106.966 cycles
cpu0_L2C TOTAL     ACCESS:    1908272  HIT:     517694  MISS:    1390578
cpu0_L2C LOAD      ACCESS:    1635762  HIT:     346946  MISS:    1288816
cpu0_L2C RFO       ACCESS:     114129  HIT:      12986  MISS:     101143
cpu0_L2C PREFETCH  ACCESS:          0  HIT:          0  MISS:          0
cpu0_L2C WRITEBACK ACCESS:     157587  HIT:     157290  MISS:        297
cpu0_L2C TRANSLATION ACCESS:        794  HIT:        472  MISS:        322
cpu0_L2C PREFETCH  REQUESTED:          0  ISSUED:          0  USEFUL:          0  USELESS:          0
cpu0_L2C AVERAGE MISS LATENCY: 120.85 cycles
LLC TOTAL     ACCESS:    1524817  HIT:     804775  MISS:     720042
LLC LOAD      ACCESS:    1288816  HIT:     627594  MISS:     661222
LLC RFO       ACCESS:     101143  HIT:      70118  MISS:      31025
LLC PREFETCH  ACCESS:          0  HIT:          0  MISS:          0
LLC WRITEBACK ACCESS:     134536  HIT:     106777  MISS:      27759
LLC TRANSLATION ACCESS:        322  HIT:        286  MISS:         36
LLC PREFETCH  REQUESTED:          0  ISSUED:          0  USEFUL:          0  USELESS:          0
LLC AVERAGE MISS LATENCY: 192.805 cycles
Insertion Distribution: 
	LOAD 27522 0 0 0 133230 619407 
	RFO 3182 0 0 0 10504 23013 
	PREF 0 0 0 0 0 0 
	WRITEBACK 0 0 0 0 0 28164 
	 2 0 0 0 35 14 
Total Prefetch Downgrades: 0

DRAM Statistics
 CHANNEL 0
 RQ ROW_BUFFER_HIT:      78198  ROW_BUFFER_MISS:     613919
 DBUS AVG_CONGESTED_CYCLE:    3.78932
 WQ ROW_BUFFER_HIT:      14015  ROW_BUFFER_MISS:      26051  FULL:      13738


CPU 0 Branch Prediction Accuracy: 91.645% MPKI: 7.87682 Average ROB Occupancy at Mispredict: 154.674
Branch type MPKI
BRANCH_DIRECT_JUMP: 0.0017
BRANCH_INDIRECT: 0.00111
BRANCH_CONDITIONAL: 7.87013
BRANCH_DIRECT_CALL: 0.00166
BRANCH_INDIRECT_CALL: 0.0005
BRANCH_RETURN: 0.00172

