
*** ChampSim Multicore Out-of-Order Simulator ***

Warmup Instructions: 10000000
Simulation Instructions: 100000000
Number of CPUs: 1
Off-chip DRAM Size: 4 GiB Channels: 1 Width: 64-bit Data Rate: 3200 MT/s

VirtualMemory physical capacity: 8588881920 num_ppages: 2096895
VirtualMemory page size: 4096 log2_page_size: 12

CPU 0 runs /datasets/cs240c-wi22-a00-public/data/Assignment2/tonto_422B.trace.xz
CPU 0 Bimodal branch predictor
Basic BTB sets: 1024 ways: 8 indirect buffer size: 4096 RAS size: 64
Initialize SRRIP state
Heartbeat CPU 0 instructions: 10000003 cycles: 2501969 heartbeat IPC: 3.99685 cumulative IPC: 3.99685 (Simulation time: 0 hr 0 min 32 sec) 

Warmup complete CPU 0 instructions: 10000003 cycles: 2501969 (Simulation time: 0 hr 0 min 32 sec) 

Heartbeat CPU 0 instructions: 20000000 cycles: 8975831 heartbeat IPC: 1.54467 cumulative IPC: 1.54467 (Simulation time: 0 hr 1 min 17 sec) 
Heartbeat CPU 0 instructions: 30000000 cycles: 15445583 heartbeat IPC: 1.54565 cumulative IPC: 1.54516 (Simulation time: 0 hr 2 min 3 sec) 
Heartbeat CPU 0 instructions: 40000002 cycles: 22042140 heartbeat IPC: 1.51594 cumulative IPC: 1.5353 (Simulation time: 0 hr 2 min 48 sec) 
Heartbeat CPU 0 instructions: 50000003 cycles: 29726015 heartbeat IPC: 1.30143 cumulative IPC: 1.46929 (Simulation time: 0 hr 3 min 42 sec) 
Heartbeat CPU 0 instructions: 60000000 cycles: 36770843 heartbeat IPC: 1.41948 cumulative IPC: 1.45905 (Simulation time: 0 hr 4 min 39 sec) 
Heartbeat CPU 0 instructions: 70000001 cycles: 43294942 heartbeat IPC: 1.53278 cumulative IPC: 1.47084 (Simulation time: 0 hr 5 min 33 sec) 
Heartbeat CPU 0 instructions: 80000002 cycles: 49505513 heartbeat IPC: 1.61016 cumulative IPC: 1.48925 (Simulation time: 0 hr 6 min 25 sec) 
Heartbeat CPU 0 instructions: 90000000 cycles: 56048111 heartbeat IPC: 1.52844 cumulative IPC: 1.49404 (Simulation time: 0 hr 7 min 17 sec) 
Heartbeat CPU 0 instructions: 100000002 cycles: 62365470 heartbeat IPC: 1.58294 cumulative IPC: 1.50342 (Simulation time: 0 hr 8 min 7 sec) 
Heartbeat CPU 0 instructions: 110000001 cycles: 68553418 heartbeat IPC: 1.61604 cumulative IPC: 1.51397 (Simulation time: 0 hr 8 min 57 sec) 
Finished CPU 0 instructions: 100000003 cycles: 66051450 cumulative IPC: 1.51397 (Simulation time: 0 hr 8 min 57 sec) 

ChampSim completed all CPUs

Region of Interest Statistics

CPU 0 cumulative IPC: 1.51397 instructions: 100000003 cycles: 66051450
cpu0_DTLB TOTAL     ACCESS:   12821103  HIT:   12784834  MISS:      36269
cpu0_DTLB LOAD      ACCESS:    9455072  HIT:    9428638  MISS:      26434
cpu0_DTLB RFO       ACCESS:    3366031  HIT:    3356196  MISS:       9835
cpu0_DTLB PREFETCH  ACCESS:          0  HIT:          0  MISS:          0
cpu0_DTLB WRITEBACK ACCESS:          0  HIT:          0  MISS:          0
cpu0_DTLB TRANSLATION ACCESS:          0  HIT:          0  MISS:          0
cpu0_DTLB PREFETCH  REQUESTED:          0  ISSUED:          0  USEFUL:          0  USELESS:          0
cpu0_DTLB AVERAGE MISS LATENCY: 13.3892 cycles
cpu0_ITLB TOTAL     ACCESS:    4155592  HIT:    4155561  MISS:         31
cpu0_ITLB LOAD      ACCESS:    4155592  HIT:    4155561  MISS:         31
cpu0_ITLB RFO       ACCESS:          0  HIT:          0  MISS:          0
cpu0_ITLB PREFETCH  ACCESS:          0  HIT:          0  MISS:          0
cpu0_ITLB WRITEBACK ACCESS:          0  HIT:          0  MISS:          0
cpu0_ITLB TRANSLATION ACCESS:          0  HIT:          0  MISS:          0
cpu0_ITLB PREFETCH  REQUESTED:          0  ISSUED:          0  USEFUL:          0  USELESS:          0
cpu0_ITLB AVERAGE MISS LATENCY: 217.419 cycles
cpu0_L1I TOTAL     ACCESS:    6343427  HIT:    6342311  MISS:       1116
cpu0_L1I LOAD      ACCESS:    6343427  HIT:    6342311  MISS:       1116
cpu0_L1I RFO       ACCESS:          0  HIT:          0  MISS:          0
cpu0_L1I PREFETCH  ACCESS:          0  HIT:          0  MISS:          0
cpu0_L1I WRITEBACK ACCESS:          0  HIT:          0  MISS:          0
cpu0_L1I TRANSLATION ACCESS:          0  HIT:          0  MISS:          0
cpu0_L1I PREFETCH  REQUESTED:          0  ISSUED:          0  USEFUL:          0  USELESS:          0
cpu0_L1I AVERAGE MISS LATENCY: 194.273 cycles
cpu0_STLB TOTAL     ACCESS:      36300  HIT:      35638  MISS:        662
cpu0_STLB LOAD      ACCESS:      26465  HIT:      26419  MISS:         46
cpu0_STLB RFO       ACCESS:       9835  HIT:       9219  MISS:        616
cpu0_STLB PREFETCH  ACCESS:          0  HIT:          0  MISS:          0
cpu0_STLB WRITEBACK ACCESS:          0  HIT:          0  MISS:          0
cpu0_STLB TRANSLATION ACCESS:          0  HIT:          0  MISS:          0
cpu0_STLB PREFETCH  REQUESTED:          0  ISSUED:          0  USEFUL:          0  USELESS:          0
cpu0_STLB AVERAGE MISS LATENCY: 249.985 cycles
cpu0_L1D TOTAL     ACCESS:   13825575  HIT:   12611242  MISS:    1214333
cpu0_L1D LOAD      ACCESS:    7737125  HIT:    6940169  MISS:     796956
cpu0_L1D RFO       ACCESS:    6087791  HIT:    5670427  MISS:     417364
cpu0_L1D PREFETCH  ACCESS:          0  HIT:          0  MISS:          0
cpu0_L1D WRITEBACK ACCESS:          0  HIT:          0  MISS:          0
cpu0_L1D TRANSLATION ACCESS:        659  HIT:        646  MISS:         13
cpu0_L1D PREFETCH  REQUESTED:          0  ISSUED:          0  USEFUL:          0  USELESS:          0
cpu0_L1D AVERAGE MISS LATENCY: 74.8517 cycles
cpu0_L2C TOTAL     ACCESS:    1652879  HIT:     826554  MISS:     826325
cpu0_L2C LOAD      ACCESS:     798072  HIT:     213755  MISS:     584317
cpu0_L2C RFO       ACCESS:     417364  HIT:     175398  MISS:     241966
cpu0_L2C PREFETCH  ACCESS:          0  HIT:          0  MISS:          0
cpu0_L2C WRITEBACK ACCESS:     437430  HIT:     437397  MISS:         33
cpu0_L2C TRANSLATION ACCESS:         13  HIT:          4  MISS:          9
cpu0_L2C PREFETCH  REQUESTED:          0  ISSUED:          0  USEFUL:          0  USELESS:          0
cpu0_L2C AVERAGE MISS LATENCY: 94.0382 cycles
LLC TOTAL     ACCESS:    1191277  HIT:     958338  MISS:     232939
LLC LOAD      ACCESS:     584273  HIT:     456004  MISS:     128269
LLC RFO       ACCESS:     241966  HIT:     184994  MISS:      56972
LLC PREFETCH  ACCESS:          0  HIT:          0  MISS:          0
LLC WRITEBACK ACCESS:     365029  HIT:     317331  MISS:      47698
LLC TRANSLATION ACCESS:          9  HIT:          9  MISS:          0
LLC PREFETCH  REQUESTED:          0  ISSUED:          0  USEFUL:          0  USELESS:          0
LLC AVERAGE MISS LATENCY: 259.006 cycles
Insertion Distribution: 
	LOAD 10047 0 0 0 58030 74492 
	RFO 7171 0 0 0 34882 18219 
	PREF 0 0 0 0 0 0 
	WRITEBACK 0 0 0 0 0 47698 
	 0 0 0 0 9 0 
Total Prefetch Downgrades: 0

DRAM Statistics
 CHANNEL 0
 RQ ROW_BUFFER_HIT:      35064  ROW_BUFFER_MISS:     149936
 DBUS AVG_CONGESTED_CYCLE:    3.96213
 WQ ROW_BUFFER_HIT:      20429  ROW_BUFFER_MISS:      94751  FULL:       7439


CPU 0 Branch Prediction Accuracy: 95.8021% MPKI: 4.07385 Average ROB Occupancy at Mispredict: 71.5638
Branch type MPKI
BRANCH_DIRECT_JUMP: 0.00041
BRANCH_INDIRECT: 5e-05
BRANCH_CONDITIONAL: 4.07099
BRANCH_DIRECT_CALL: 0.00126
BRANCH_INDIRECT_CALL: 0
BRANCH_RETURN: 0.00114

