
*** ChampSim Multicore Out-of-Order Simulator ***

Warmup Instructions: 10000000
Simulation Instructions: 100000000
Number of CPUs: 1
Off-chip DRAM Size: 4 GiB Channels: 1 Width: 64-bit Data Rate: 3200 MT/s

VirtualMemory physical capacity: 8588881920 num_ppages: 2096895
VirtualMemory page size: 4096 log2_page_size: 12

CPU 0 runs /datasets/cs240c-wi22-a00-public/data/Assignment2/xalancbmk_99B.trace.xz
CPU 0 Bimodal branch predictor
Basic BTB sets: 1024 ways: 8 indirect buffer size: 4096 RAS size: 64
Initialize SRRIP state
Heartbeat CPU 0 instructions: 10000001 cycles: 3058745 heartbeat IPC: 3.26932 cumulative IPC: 3.26932 (Simulation time: 0 hr 0 min 45 sec) 

Warmup complete CPU 0 instructions: 10000001 cycles: 3058745 (Simulation time: 0 hr 0 min 45 sec) 

Heartbeat CPU 0 instructions: 20000003 cycles: 37640901 heartbeat IPC: 0.289167 cumulative IPC: 0.289167 (Simulation time: 0 hr 1 min 59 sec) 
Heartbeat CPU 0 instructions: 30000000 cycles: 76175639 heartbeat IPC: 0.259506 cumulative IPC: 0.273535 (Simulation time: 0 hr 3 min 19 sec) 
Heartbeat CPU 0 instructions: 40000000 cycles: 112684529 heartbeat IPC: 0.273906 cumulative IPC: 0.273658 (Simulation time: 0 hr 4 min 36 sec) 
Heartbeat CPU 0 instructions: 50000002 cycles: 150683985 heartbeat IPC: 0.263162 cumulative IPC: 0.270956 (Simulation time: 0 hr 5 min 59 sec) 
Heartbeat CPU 0 instructions: 60000002 cycles: 188246477 heartbeat IPC: 0.266223 cumulative IPC: 0.269996 (Simulation time: 0 hr 7 min 19 sec) 
Heartbeat CPU 0 instructions: 70000002 cycles: 223027660 heartbeat IPC: 0.287512 cumulative IPC: 0.272766 (Simulation time: 0 hr 8 min 35 sec) 
Heartbeat CPU 0 instructions: 80000001 cycles: 259278025 heartbeat IPC: 0.275859 cumulative IPC: 0.273203 (Simulation time: 0 hr 9 min 51 sec) 
Heartbeat CPU 0 instructions: 90000000 cycles: 295284492 heartbeat IPC: 0.277728 cumulative IPC: 0.273761 (Simulation time: 0 hr 11 min 10 sec) 
Heartbeat CPU 0 instructions: 100000000 cycles: 329235574 heartbeat IPC: 0.294541 cumulative IPC: 0.275924 (Simulation time: 0 hr 12 min 25 sec) 
Heartbeat CPU 0 instructions: 110000001 cycles: 364101282 heartbeat IPC: 0.286815 cumulative IPC: 0.276976 (Simulation time: 0 hr 13 min 41 sec) 
Finished CPU 0 instructions: 100000000 cycles: 361042537 cumulative IPC: 0.276976 (Simulation time: 0 hr 13 min 41 sec) 

ChampSim completed all CPUs

Region of Interest Statistics

CPU 0 cumulative IPC: 0.276976 instructions: 100000000 cycles: 361042537
cpu0_DTLB TOTAL     ACCESS:   22804774  HIT:   22244113  MISS:     560661
cpu0_DTLB LOAD      ACCESS:   21425509  HIT:   20874548  MISS:     550961
cpu0_DTLB RFO       ACCESS:    1379265  HIT:    1369565  MISS:       9700
cpu0_DTLB PREFETCH  ACCESS:          0  HIT:          0  MISS:          0
cpu0_DTLB WRITEBACK ACCESS:          0  HIT:          0  MISS:          0
cpu0_DTLB TRANSLATION ACCESS:          0  HIT:          0  MISS:          0
cpu0_DTLB PREFETCH  REQUESTED:          0  ISSUED:          0  USEFUL:          0  USELESS:          0
cpu0_DTLB AVERAGE MISS LATENCY: 37.3233 cycles
cpu0_ITLB TOTAL     ACCESS:   13331675  HIT:   13304317  MISS:      27358
cpu0_ITLB LOAD      ACCESS:   13331675  HIT:   13304317  MISS:      27358
cpu0_ITLB RFO       ACCESS:          0  HIT:          0  MISS:          0
cpu0_ITLB PREFETCH  ACCESS:          0  HIT:          0  MISS:          0
cpu0_ITLB WRITEBACK ACCESS:          0  HIT:          0  MISS:          0
cpu0_ITLB TRANSLATION ACCESS:          0  HIT:          0  MISS:          0
cpu0_ITLB PREFETCH  REQUESTED:          0  ISSUED:          0  USEFUL:          0  USELESS:          0
cpu0_ITLB AVERAGE MISS LATENCY: 10.9146 cycles
cpu0_L1I TOTAL     ACCESS:     671309  HIT:     564242  MISS:     107067
cpu0_L1I LOAD      ACCESS:     671309  HIT:     564242  MISS:     107067
cpu0_L1I RFO       ACCESS:          0  HIT:          0  MISS:          0
cpu0_L1I PREFETCH  ACCESS:          0  HIT:          0  MISS:          0
cpu0_L1I WRITEBACK ACCESS:          0  HIT:          0  MISS:          0
cpu0_L1I TRANSLATION ACCESS:          0  HIT:          0  MISS:          0
cpu0_L1I PREFETCH  REQUESTED:          0  ISSUED:          0  USEFUL:          0  USELESS:          0
cpu0_L1I AVERAGE MISS LATENCY: 29.4047 cycles
cpu0_STLB TOTAL     ACCESS:     588019  HIT:     173006  MISS:     415013
cpu0_STLB LOAD      ACCESS:     578319  HIT:     164928  MISS:     413391
cpu0_STLB RFO       ACCESS:       9700  HIT:       8078  MISS:       1622
cpu0_STLB PREFETCH  ACCESS:          0  HIT:          0  MISS:          0
cpu0_STLB WRITEBACK ACCESS:          0  HIT:          0  MISS:          0
cpu0_STLB TRANSLATION ACCESS:          0  HIT:          0  MISS:          0
cpu0_STLB PREFETCH  REQUESTED:          0  ISSUED:          0  USEFUL:          0  USELESS:          0
cpu0_STLB AVERAGE MISS LATENCY: 38.3139 cycles
cpu0_L1D TOTAL     ACCESS:   17700740  HIT:   14555592  MISS:    3145148
cpu0_L1D LOAD      ACCESS:   15460052  HIT:   12332806  MISS:    3127246
cpu0_L1D RFO       ACCESS:    1870391  HIT:    1858441  MISS:      11950
cpu0_L1D PREFETCH  ACCESS:          0  HIT:          0  MISS:          0
cpu0_L1D WRITEBACK ACCESS:          0  HIT:          0  MISS:          0
cpu0_L1D TRANSLATION ACCESS:     370297  HIT:     364345  MISS:       5952
cpu0_L1D PREFETCH  REQUESTED:          0  ISSUED:          0  USEFUL:          0  USELESS:          0
cpu0_L1D AVERAGE MISS LATENCY: 148.325 cycles
cpu0_L2C TOTAL     ACCESS:    3279999  HIT:     136164  MISS:    3143835
cpu0_L2C LOAD      ACCESS:    3234304  HIT:     101471  MISS:    3132833
cpu0_L2C RFO       ACCESS:      11946  HIT:       2660  MISS:       9286
cpu0_L2C PREFETCH  ACCESS:          0  HIT:          0  MISS:          0
cpu0_L2C WRITEBACK ACCESS:      27797  HIT:      27408  MISS:        389
cpu0_L2C TRANSLATION ACCESS:       5952  HIT:       4625  MISS:       1327
cpu0_L2C PREFETCH  REQUESTED:          0  ISSUED:          0  USEFUL:          0  USELESS:          0
cpu0_L2C AVERAGE MISS LATENCY: 137.855 cycles
LLC TOTAL     ACCESS:    3163833  HIT:     817921  MISS:    2345912
LLC LOAD      ACCESS:    3132833  HIT:     795623  MISS:    2337210
LLC RFO       ACCESS:       9285  HIT:       4180  MISS:       5105
LLC PREFETCH  ACCESS:          0  HIT:          0  MISS:          0
LLC WRITEBACK ACCESS:      20388  HIT:      17045  MISS:       3343
LLC TRANSLATION ACCESS:       1327  HIT:       1073  MISS:        254
LLC PREFETCH  REQUESTED:          0  ISSUED:          0  USEFUL:          0  USELESS:          0
LLC AVERAGE MISS LATENCY: 156.605 cycles
Insertion Distribution: 
	LOAD 48169 0 0 0 206570 2329482 
	RFO 0 0 0 0 3596 1821 
	PREF 0 0 0 0 0 0 
	WRITEBACK 0 0 0 0 0 3427 
	 1 0 0 0 47 241 
Total Prefetch Downgrades: 0

DRAM Statistics
 CHANNEL 0
 RQ ROW_BUFFER_HIT:     583530  ROW_BUFFER_MISS:    1759038
 DBUS AVG_CONGESTED_CYCLE:     3.9165
 WQ ROW_BUFFER_HIT:       2479  ROW_BUFFER_MISS:       3159  FULL:          0


CPU 0 Branch Prediction Accuracy: 90.7444% MPKI: 27.9345 Average ROB Occupancy at Mispredict: 19.3414
Branch type MPKI
BRANCH_DIRECT_JUMP: 0.00034
BRANCH_INDIRECT: 0.0087
BRANCH_CONDITIONAL: 27.8577
BRANCH_DIRECT_CALL: 0.00024
BRANCH_INDIRECT_CALL: 0.02508
BRANCH_RETURN: 0.04245

