
*** ChampSim Multicore Out-of-Order Simulator ***

Warmup Instructions: 10000000
Simulation Instructions: 100000000
Number of CPUs: 1
Off-chip DRAM Size: 4 GiB Channels: 1 Width: 64-bit Data Rate: 3200 MT/s

VirtualMemory physical capacity: 8588881920 num_ppages: 2096895
VirtualMemory page size: 4096 log2_page_size: 12

CPU 0 runs /datasets/cs240c-wi22-a00-public/data/Assignment2/cactusADM_1495B.trace.xz
CPU 0 Bimodal branch predictor
Basic BTB sets: 1024 ways: 8 indirect buffer size: 4096 RAS size: 64
Initialize Hawkeye state
Heartbeat CPU 0 instructions: 10000001 cycles: 3702086 heartbeat IPC: 2.70118 cumulative IPC: 2.70118 (Simulation time: 0 hr 1 min 0 sec) 

Warmup complete CPU 0 instructions: 10000001 cycles: 3702086 (Simulation time: 0 hr 1 min 0 sec) 

Heartbeat CPU 0 instructions: 20000001 cycles: 11377894 heartbeat IPC: 1.30279 cumulative IPC: 1.30279 (Simulation time: 0 hr 2 min 36 sec) 
Heartbeat CPU 0 instructions: 30000003 cycles: 20267766 heartbeat IPC: 1.12488 cumulative IPC: 1.20732 (Simulation time: 0 hr 4 min 16 sec) 
Heartbeat CPU 0 instructions: 40000003 cycles: 29039621 heartbeat IPC: 1.14001 cumulative IPC: 1.18401 (Simulation time: 0 hr 5 min 59 sec) 
Heartbeat CPU 0 instructions: 50000000 cycles: 37590433 heartbeat IPC: 1.16948 cumulative IPC: 1.18035 (Simulation time: 0 hr 7 min 40 sec) 
Heartbeat CPU 0 instructions: 60000000 cycles: 44749350 heartbeat IPC: 1.39686 cumulative IPC: 1.21811 (Simulation time: 0 hr 9 min 13 sec) 
Heartbeat CPU 0 instructions: 70000000 cycles: 52429776 heartbeat IPC: 1.30201 cumulative IPC: 1.23133 (Simulation time: 0 hr 10 min 47 sec) 
Heartbeat CPU 0 instructions: 80000003 cycles: 60832755 heartbeat IPC: 1.19005 cumulative IPC: 1.22526 (Simulation time: 0 hr 12 min 28 sec) 
Heartbeat CPU 0 instructions: 90000002 cycles: 69439964 heartbeat IPC: 1.16182 cumulative IPC: 1.21695 (Simulation time: 0 hr 14 min 9 sec) 
Heartbeat CPU 0 instructions: 100000002 cycles: 78053714 heartbeat IPC: 1.16093 cumulative IPC: 1.21046 (Simulation time: 0 hr 15 min 50 sec) 
Heartbeat CPU 0 instructions: 110000001 cycles: 84143194 heartbeat IPC: 1.64218 cumulative IPC: 1.24315 (Simulation time: 0 hr 17 min 17 sec) 
Finished CPU 0 instructions: 100000000 cycles: 80441108 cumulative IPC: 1.24315 (Simulation time: 0 hr 17 min 17 sec) 

ChampSim completed all CPUs

Region of Interest Statistics

CPU 0 cumulative IPC: 1.24315 instructions: 100000000 cycles: 80441108
cpu0_DTLB TOTAL     ACCESS:   21528957  HIT:   19756781  MISS:    1772176
cpu0_DTLB LOAD      ACCESS:   17718700  HIT:   16509551  MISS:    1209149
cpu0_DTLB RFO       ACCESS:    3810257  HIT:    3247230  MISS:     563027
cpu0_DTLB PREFETCH  ACCESS:          0  HIT:          0  MISS:          0
cpu0_DTLB WRITEBACK ACCESS:          0  HIT:          0  MISS:          0
cpu0_DTLB TRANSLATION ACCESS:          0  HIT:          0  MISS:          0
cpu0_DTLB PREFETCH  REQUESTED:          0  ISSUED:          0  USEFUL:          0  USELESS:          0
cpu0_DTLB AVERAGE MISS LATENCY: 16.0114 cycles
cpu0_ITLB TOTAL     ACCESS:    1614981  HIT:    1614981  MISS:          0
cpu0_ITLB LOAD      ACCESS:    1614981  HIT:    1614981  MISS:          0
cpu0_ITLB RFO       ACCESS:          0  HIT:          0  MISS:          0
cpu0_ITLB PREFETCH  ACCESS:          0  HIT:          0  MISS:          0
cpu0_ITLB WRITEBACK ACCESS:          0  HIT:          0  MISS:          0
cpu0_ITLB TRANSLATION ACCESS:          0  HIT:          0  MISS:          0
cpu0_ITLB PREFETCH  REQUESTED:          0  ISSUED:          0  USEFUL:          0  USELESS:          0
cpu0_ITLB AVERAGE MISS LATENCY: -nan cycles
cpu0_L1I TOTAL     ACCESS:    8445777  HIT:    8445777  MISS:          0
cpu0_L1I LOAD      ACCESS:    8445777  HIT:    8445777  MISS:          0
cpu0_L1I RFO       ACCESS:          0  HIT:          0  MISS:          0
cpu0_L1I PREFETCH  ACCESS:          0  HIT:          0  MISS:          0
cpu0_L1I WRITEBACK ACCESS:          0  HIT:          0  MISS:          0
cpu0_L1I TRANSLATION ACCESS:          0  HIT:          0  MISS:          0
cpu0_L1I PREFETCH  REQUESTED:          0  ISSUED:          0  USEFUL:          0  USELESS:          0
cpu0_L1I AVERAGE MISS LATENCY: -nan cycles
cpu0_STLB TOTAL     ACCESS:    1772176  HIT:     904952  MISS:     867224
cpu0_STLB LOAD      ACCESS:    1209149  HIT:     648089  MISS:     561060
cpu0_STLB RFO       ACCESS:     563027  HIT:     256863  MISS:     306164
cpu0_STLB PREFETCH  ACCESS:          0  HIT:          0  MISS:          0
cpu0_STLB WRITEBACK ACCESS:          0  HIT:          0  MISS:          0
cpu0_STLB TRANSLATION ACCESS:          0  HIT:          0  MISS:          0
cpu0_STLB PREFETCH  REQUESTED:          0  ISSUED:          0  USEFUL:          0  USELESS:          0
cpu0_STLB AVERAGE MISS LATENCY: 14.2056 cycles
cpu0_L1D TOTAL     ACCESS:   37514573  HIT:   36226316  MISS:    1288257
cpu0_L1D LOAD      ACCESS:   25697755  HIT:   24661677  MISS:    1036078
cpu0_L1D RFO       ACCESS:   10950303  HIT:   10705071  MISS:     245232
cpu0_L1D PREFETCH  ACCESS:          0  HIT:          0  MISS:          0
cpu0_L1D WRITEBACK ACCESS:          0  HIT:          0  MISS:          0
cpu0_L1D TRANSLATION ACCESS:     866515  HIT:     859568  MISS:       6947
cpu0_L1D PREFETCH  REQUESTED:          0  ISSUED:          0  USEFUL:          0  USELESS:          0
cpu0_L1D AVERAGE MISS LATENCY: 260.652 cycles
cpu0_L2C TOTAL     ACCESS:    1537040  HIT:     676874  MISS:     860166
cpu0_L2C LOAD      ACCESS:    1036078  HIT:     421656  MISS:     614422
cpu0_L2C RFO       ACCESS:     245232  HIT:          0  MISS:     245232
cpu0_L2C PREFETCH  ACCESS:          0  HIT:          0  MISS:          0
cpu0_L2C WRITEBACK ACCESS:     248783  HIT:     248595  MISS:        188
cpu0_L2C TRANSLATION ACCESS:       6947  HIT:       6623  MISS:        324
cpu0_L2C PREFETCH  REQUESTED:          0  ISSUED:          0  USEFUL:          0  USELESS:          0
cpu0_L2C AVERAGE MISS LATENCY: 373.878 cycles
LLC TOTAL     ACCESS:    1105587  HIT:     328840  MISS:     776747
LLC LOAD      ACCESS:     614422  HIT:     156212  MISS:     458210
LLC RFO       ACCESS:     245232  HIT:      78360  MISS:     166872
LLC PREFETCH  ACCESS:          0  HIT:          0  MISS:          0
LLC WRITEBACK ACCESS:     245609  HIT:      94249  MISS:     151360
LLC TRANSLATION ACCESS:        324  HIT:         19  MISS:        305
LLC PREFETCH  REQUESTED:          0  ISSUED:          0  USEFUL:          0  USELESS:          0
LLC AVERAGE MISS LATENCY: 390.779 cycles
OPTgen accesses: 15005
OPTgen hits: 4799
OPTgen hit rate: 31.9827



DRAM Statistics
 CHANNEL 0
 RQ ROW_BUFFER_HIT:       5701  ROW_BUFFER_MISS:     619680
 DBUS AVG_CONGESTED_CYCLE:    3.97399
 WQ ROW_BUFFER_HIT:      18119  ROW_BUFFER_MISS:     200173  FULL:        291


CPU 0 Branch Prediction Accuracy: 97.8411% MPKI: 0.04284 Average ROB Occupancy at Mispredict: 285.486
Branch type MPKI
BRANCH_DIRECT_JUMP: 0
BRANCH_INDIRECT: 0
BRANCH_CONDITIONAL: 0.04284
BRANCH_DIRECT_CALL: 0
BRANCH_INDIRECT_CALL: 0
BRANCH_RETURN: 0

