
*** ChampSim Multicore Out-of-Order Simulator ***

Warmup Instructions: 10000000
Simulation Instructions: 100000000
Number of CPUs: 1
Off-chip DRAM Size: 4 GiB Channels: 1 Width: 64-bit Data Rate: 3200 MT/s

VirtualMemory physical capacity: 8588881920 num_ppages: 2096895
VirtualMemory page size: 4096 log2_page_size: 12

CPU 0 runs /datasets/cs240c-wi22-a00-public/data/Assignment2/hmmer_7B.trace.xz
CPU 0 Bimodal branch predictor
Basic BTB sets: 1024 ways: 8 indirect buffer size: 4096 RAS size: 64
Initialize Hawkeye state
Heartbeat CPU 0 instructions: 10000004 cycles: 3986065 heartbeat IPC: 2.50874 cumulative IPC: 2.50874 (Simulation time: 0 hr 0 min 51 sec) 

Warmup complete CPU 0 instructions: 10000004 cycles: 3986065 (Simulation time: 0 hr 0 min 51 sec) 

Heartbeat CPU 0 instructions: 20000004 cycles: 9286469 heartbeat IPC: 1.88665 cumulative IPC: 1.88665 (Simulation time: 0 hr 2 min 2 sec) 
Heartbeat CPU 0 instructions: 30000001 cycles: 14187840 heartbeat IPC: 2.04024 cumulative IPC: 1.96044 (Simulation time: 0 hr 3 min 9 sec) 
Heartbeat CPU 0 instructions: 40000001 cycles: 18704943 heartbeat IPC: 2.21381 cumulative IPC: 2.0382 (Simulation time: 0 hr 4 min 16 sec) 
Heartbeat CPU 0 instructions: 50000000 cycles: 24035538 heartbeat IPC: 1.87596 cumulative IPC: 1.99506 (Simulation time: 0 hr 5 min 25 sec) 
Heartbeat CPU 0 instructions: 60000000 cycles: 28371529 heartbeat IPC: 2.30628 cumulative IPC: 2.0504 (Simulation time: 0 hr 6 min 30 sec) 
Heartbeat CPU 0 instructions: 70000003 cycles: 32694607 heartbeat IPC: 2.31317 cumulative IPC: 2.08997 (Simulation time: 0 hr 7 min 34 sec) 
Heartbeat CPU 0 instructions: 80000001 cycles: 37004322 heartbeat IPC: 2.32034 cumulative IPC: 2.12004 (Simulation time: 0 hr 8 min 41 sec) 
Heartbeat CPU 0 instructions: 90000004 cycles: 41323929 heartbeat IPC: 2.31503 cumulative IPC: 2.1426 (Simulation time: 0 hr 9 min 47 sec) 
Heartbeat CPU 0 instructions: 100000002 cycles: 45642992 heartbeat IPC: 2.31532 cumulative IPC: 2.16051 (Simulation time: 0 hr 10 min 53 sec) 
Heartbeat CPU 0 instructions: 110000001 cycles: 49971770 heartbeat IPC: 2.31012 cumulative IPC: 2.17459 (Simulation time: 0 hr 11 min 57 sec) 
Finished CPU 0 instructions: 100000002 cycles: 45985706 cumulative IPC: 2.17459 (Simulation time: 0 hr 11 min 57 sec) 

ChampSim completed all CPUs

Region of Interest Statistics

CPU 0 cumulative IPC: 2.17459 instructions: 100000002 cycles: 45985706
cpu0_DTLB TOTAL     ACCESS:   40544123  HIT:   40529955  MISS:      14168
cpu0_DTLB LOAD      ACCESS:   32388785  HIT:   32381054  MISS:       7731
cpu0_DTLB RFO       ACCESS:    8155338  HIT:    8148901  MISS:       6437
cpu0_DTLB PREFETCH  ACCESS:          0  HIT:          0  MISS:          0
cpu0_DTLB WRITEBACK ACCESS:          0  HIT:          0  MISS:          0
cpu0_DTLB TRANSLATION ACCESS:          0  HIT:          0  MISS:          0
cpu0_DTLB PREFETCH  REQUESTED:          0  ISSUED:          0  USEFUL:          0  USELESS:          0
cpu0_DTLB AVERAGE MISS LATENCY: 14.7376 cycles
cpu0_ITLB TOTAL     ACCESS:     798177  HIT:     798105  MISS:         72
cpu0_ITLB LOAD      ACCESS:     798177  HIT:     798105  MISS:         72
cpu0_ITLB RFO       ACCESS:          0  HIT:          0  MISS:          0
cpu0_ITLB PREFETCH  ACCESS:          0  HIT:          0  MISS:          0
cpu0_ITLB WRITEBACK ACCESS:          0  HIT:          0  MISS:          0
cpu0_ITLB TRANSLATION ACCESS:          0  HIT:          0  MISS:          0
cpu0_ITLB PREFETCH  REQUESTED:          0  ISSUED:          0  USEFUL:          0  USELESS:          0
cpu0_ITLB AVERAGE MISS LATENCY: 23.2639 cycles
cpu0_L1I TOTAL     ACCESS:      62192  HIT:      62087  MISS:        105
cpu0_L1I LOAD      ACCESS:      62192  HIT:      62087  MISS:        105
cpu0_L1I RFO       ACCESS:          0  HIT:          0  MISS:          0
cpu0_L1I PREFETCH  ACCESS:          0  HIT:          0  MISS:          0
cpu0_L1I WRITEBACK ACCESS:          0  HIT:          0  MISS:          0
cpu0_L1I TRANSLATION ACCESS:          0  HIT:          0  MISS:          0
cpu0_L1I PREFETCH  REQUESTED:          0  ISSUED:          0  USEFUL:          0  USELESS:          0
cpu0_L1I AVERAGE MISS LATENCY: 111.143 cycles
cpu0_STLB TOTAL     ACCESS:      14240  HIT:      13785  MISS:        455
cpu0_STLB LOAD      ACCESS:       7803  HIT:       7795  MISS:          8
cpu0_STLB RFO       ACCESS:       6437  HIT:       5990  MISS:        447
cpu0_STLB PREFETCH  ACCESS:          0  HIT:          0  MISS:          0
cpu0_STLB WRITEBACK ACCESS:          0  HIT:          0  MISS:          0
cpu0_STLB TRANSLATION ACCESS:          0  HIT:          0  MISS:          0
cpu0_STLB PREFETCH  REQUESTED:          0  ISSUED:          0  USEFUL:          0  USELESS:          0
cpu0_STLB AVERAGE MISS LATENCY: 180.716 cycles
cpu0_L1D TOTAL     ACCESS:   33474921  HIT:   33004840  MISS:     470081
cpu0_L1D LOAD      ACCESS:   28673254  HIT:   28511904  MISS:     161350
cpu0_L1D RFO       ACCESS:    4801213  HIT:    4492505  MISS:     308708
cpu0_L1D PREFETCH  ACCESS:          0  HIT:          0  MISS:          0
cpu0_L1D WRITEBACK ACCESS:          0  HIT:          0  MISS:          0
cpu0_L1D TRANSLATION ACCESS:        454  HIT:        431  MISS:         23
cpu0_L1D PREFETCH  REQUESTED:          0  ISSUED:          0  USEFUL:          0  USELESS:          0
cpu0_L1D AVERAGE MISS LATENCY: 251.887 cycles
cpu0_L2C TOTAL     ACCESS:     777183  HIT:     472260  MISS:     304923
cpu0_L2C LOAD      ACCESS:     161455  HIT:     149221  MISS:      12234
cpu0_L2C RFO       ACCESS:     308708  HIT:      16074  MISS:     292634
cpu0_L2C PREFETCH  ACCESS:          0  HIT:          0  MISS:          0
cpu0_L2C WRITEBACK ACCESS:     306997  HIT:     306950  MISS:         47
cpu0_L2C TRANSLATION ACCESS:         23  HIT:         15  MISS:          8
cpu0_L2C PREFETCH  REQUESTED:          0  ISSUED:          0  USEFUL:          0  USELESS:          0
cpu0_L2C AVERAGE MISS LATENCY: 371.381 cycles
LLC TOTAL     ACCESS:     596391  HIT:     451174  MISS:     145217
LLC LOAD      ACCESS:      12233  HIT:      10609  MISS:       1624
LLC RFO       ACCESS:     292633  HIT:     209782  MISS:      82851
LLC PREFETCH  ACCESS:          0  HIT:          0  MISS:          0
LLC WRITEBACK ACCESS:     291517  HIT:     230779  MISS:      60738
LLC TRANSLATION ACCESS:          8  HIT:          4  MISS:          4
LLC PREFETCH  REQUESTED:          0  ISSUED:          0  USEFUL:          0  USELESS:          0
LLC AVERAGE MISS LATENCY: 735.717 cycles
OPTgen accesses: 5335
OPTgen hits: 3762
OPTgen hit rate: 70.5155



DRAM Statistics
 CHANNEL 0
 RQ ROW_BUFFER_HIT:        933  ROW_BUFFER_MISS:      83542
 DBUS AVG_CONGESTED_CYCLE:    3.99437
 WQ ROW_BUFFER_HIT:       4189  ROW_BUFFER_MISS:      78648  FULL:       6307


CPU 0 Branch Prediction Accuracy: 98.9368% MPKI: 0.40856 Average ROB Occupancy at Mispredict: 252.389
Branch type MPKI
BRANCH_DIRECT_JUMP: 0.00016
BRANCH_INDIRECT: 0.00157
BRANCH_CONDITIONAL: 0.40659
BRANCH_DIRECT_CALL: 9e-05
BRANCH_INDIRECT_CALL: 3e-05
BRANCH_RETURN: 0.00012

