
*** ChampSim Multicore Out-of-Order Simulator ***

Warmup Instructions: 10000000
Simulation Instructions: 100000000
Number of CPUs: 1
Off-chip DRAM Size: 4 GiB Channels: 1 Width: 64-bit Data Rate: 3200 MT/s

VirtualMemory physical capacity: 8588881920 num_ppages: 2096895
VirtualMemory page size: 4096 log2_page_size: 12

CPU 0 runs /datasets/cs240c-wi22-a00-public/data/Assignment2/gobmk_60B.trace.xz
CPU 0 Bimodal branch predictor
Basic BTB sets: 1024 ways: 8 indirect buffer size: 4096 RAS size: 64
Initialize Hawkeye state
Heartbeat CPU 0 instructions: 10000003 cycles: 2517660 heartbeat IPC: 3.97194 cumulative IPC: 3.97194 (Simulation time: 0 hr 1 min 20 sec) 

Warmup complete CPU 0 instructions: 10000003 cycles: 2517660 (Simulation time: 0 hr 1 min 20 sec) 

Heartbeat CPU 0 instructions: 20000000 cycles: 14674904 heartbeat IPC: 0.822555 cumulative IPC: 0.822555 (Simulation time: 0 hr 2 min 54 sec) 
Heartbeat CPU 0 instructions: 30000003 cycles: 26246061 heartbeat IPC: 0.864218 cumulative IPC: 0.842872 (Simulation time: 0 hr 4 min 24 sec) 
Heartbeat CPU 0 instructions: 40000002 cycles: 37313574 heartbeat IPC: 0.903545 cumulative IPC: 0.86217 (Simulation time: 0 hr 5 min 54 sec) 
Heartbeat CPU 0 instructions: 50000002 cycles: 47781860 heartbeat IPC: 0.955266 cumulative IPC: 0.883701 (Simulation time: 0 hr 7 min 23 sec) 
Heartbeat CPU 0 instructions: 60000004 cycles: 58821973 heartbeat IPC: 0.905788 cumulative IPC: 0.888031 (Simulation time: 0 hr 8 min 52 sec) 
Heartbeat CPU 0 instructions: 70000000 cycles: 69766292 heartbeat IPC: 0.913716 cumulative IPC: 0.892211 (Simulation time: 0 hr 10 min 21 sec) 
Heartbeat CPU 0 instructions: 80000001 cycles: 80403575 heartbeat IPC: 0.94009 cumulative IPC: 0.89875 (Simulation time: 0 hr 11 min 50 sec) 
Heartbeat CPU 0 instructions: 90000000 cycles: 90627686 heartbeat IPC: 0.97808 cumulative IPC: 0.907956 (Simulation time: 0 hr 13 min 14 sec) 
Heartbeat CPU 0 instructions: 100000003 cycles: 101523717 heartbeat IPC: 0.917766 cumulative IPC: 0.909035 (Simulation time: 0 hr 14 min 44 sec) 
Heartbeat CPU 0 instructions: 110000002 cycles: 112344856 heartbeat IPC: 0.924117 cumulative IPC: 0.910521 (Simulation time: 0 hr 16 min 16 sec) 
Finished CPU 0 instructions: 100000001 cycles: 109827197 cumulative IPC: 0.910521 (Simulation time: 0 hr 16 min 16 sec) 

ChampSim completed all CPUs

Region of Interest Statistics

CPU 0 cumulative IPC: 0.910521 instructions: 100000001 cycles: 109827197
cpu0_DTLB TOTAL     ACCESS:   22746656  HIT:   22706459  MISS:      40197
cpu0_DTLB LOAD      ACCESS:   14290331  HIT:   14257204  MISS:      33127
cpu0_DTLB RFO       ACCESS:    8456325  HIT:    8449255  MISS:       7070
cpu0_DTLB PREFETCH  ACCESS:          0  HIT:          0  MISS:          0
cpu0_DTLB WRITEBACK ACCESS:          0  HIT:          0  MISS:          0
cpu0_DTLB TRANSLATION ACCESS:          0  HIT:          0  MISS:          0
cpu0_DTLB PREFETCH  REQUESTED:          0  ISSUED:          0  USEFUL:          0  USELESS:          0
cpu0_DTLB AVERAGE MISS LATENCY: 13.7365 cycles
cpu0_ITLB TOTAL     ACCESS:    8840816  HIT:    8840440  MISS:        376
cpu0_ITLB LOAD      ACCESS:    8840816  HIT:    8840440  MISS:        376
cpu0_ITLB RFO       ACCESS:          0  HIT:          0  MISS:          0
cpu0_ITLB PREFETCH  ACCESS:          0  HIT:          0  MISS:          0
cpu0_ITLB WRITEBACK ACCESS:          0  HIT:          0  MISS:          0
cpu0_ITLB TRANSLATION ACCESS:          0  HIT:          0  MISS:          0
cpu0_ITLB PREFETCH  REQUESTED:          0  ISSUED:          0  USEFUL:          0  USELESS:          0
cpu0_ITLB AVERAGE MISS LATENCY: 21 cycles
cpu0_L1I TOTAL     ACCESS:    9588359  HIT:    9233265  MISS:     355094
cpu0_L1I LOAD      ACCESS:    9588359  HIT:    9233265  MISS:     355094
cpu0_L1I RFO       ACCESS:          0  HIT:          0  MISS:          0
cpu0_L1I PREFETCH  ACCESS:          0  HIT:          0  MISS:          0
cpu0_L1I WRITEBACK ACCESS:          0  HIT:          0  MISS:          0
cpu0_L1I TRANSLATION ACCESS:          0  HIT:          0  MISS:          0
cpu0_L1I PREFETCH  REQUESTED:          0  ISSUED:          0  USEFUL:          0  USELESS:          0
cpu0_L1I AVERAGE MISS LATENCY: 11.4348 cycles
cpu0_STLB TOTAL     ACCESS:      40573  HIT:      36586  MISS:       3987
cpu0_STLB LOAD      ACCESS:      33503  HIT:      29667  MISS:       3836
cpu0_STLB RFO       ACCESS:       7070  HIT:       6919  MISS:        151
cpu0_STLB PREFETCH  ACCESS:          0  HIT:          0  MISS:          0
cpu0_STLB WRITEBACK ACCESS:          0  HIT:          0  MISS:          0
cpu0_STLB TRANSLATION ACCESS:          0  HIT:          0  MISS:          0
cpu0_STLB PREFETCH  REQUESTED:          0  ISSUED:          0  USEFUL:          0  USELESS:          0
cpu0_STLB AVERAGE MISS LATENCY: 48.8708 cycles
cpu0_L1D TOTAL     ACCESS:   29968717  HIT:   29780589  MISS:     188128
cpu0_L1D LOAD      ACCESS:   14372728  HIT:   14281046  MISS:      91682
cpu0_L1D RFO       ACCESS:   15592011  HIT:   15495899  MISS:      96112
cpu0_L1D PREFETCH  ACCESS:          0  HIT:          0  MISS:          0
cpu0_L1D WRITEBACK ACCESS:          0  HIT:          0  MISS:          0
cpu0_L1D TRANSLATION ACCESS:       3978  HIT:       3644  MISS:        334
cpu0_L1D PREFETCH  REQUESTED:          0  ISSUED:          0  USEFUL:          0  USELESS:          0
cpu0_L1D AVERAGE MISS LATENCY: 37.6185 cycles
cpu0_L2C TOTAL     ACCESS:     671074  HIT:     631686  MISS:      39388
cpu0_L2C LOAD      ACCESS:     446774  HIT:     411062  MISS:      35712
cpu0_L2C RFO       ACCESS:      96110  HIT:      92532  MISS:       3578
cpu0_L2C PREFETCH  ACCESS:          0  HIT:          0  MISS:          0
cpu0_L2C WRITEBACK ACCESS:     127856  HIT:     127768  MISS:         88
cpu0_L2C TRANSLATION ACCESS:        334  HIT:        324  MISS:         10
cpu0_L2C PREFETCH  REQUESTED:          0  ISSUED:          0  USEFUL:          0  USELESS:          0
cpu0_L2C AVERAGE MISS LATENCY: 130.804 cycles
LLC TOTAL     ACCESS:      60926  HIT:      32590  MISS:      28336
LLC LOAD      ACCESS:      35712  HIT:      10877  MISS:      24835
LLC RFO       ACCESS:       3578  HIT:       1795  MISS:       1783
LLC PREFETCH  ACCESS:          0  HIT:          0  MISS:          0
LLC WRITEBACK ACCESS:      21626  HIT:      19908  MISS:       1718
LLC TRANSLATION ACCESS:         10  HIT:         10  MISS:          0
LLC PREFETCH  REQUESTED:          0  ISSUED:          0  USEFUL:          0  USELESS:          0
LLC AVERAGE MISS LATENCY: 152.697 cycles
OPTgen accesses: 828
OPTgen hits: 232
OPTgen hit rate: 28.0193



DRAM Statistics
 CHANNEL 0
 RQ ROW_BUFFER_HIT:        411  ROW_BUFFER_MISS:      26207
 DBUS AVG_CONGESTED_CYCLE:    3.15672
 WQ ROW_BUFFER_HIT:        853  ROW_BUFFER_MISS:       2928  FULL:          0


CPU 0 Branch Prediction Accuracy: 85.9871% MPKI: 25.6745 Average ROB Occupancy at Mispredict: 15.094
Branch type MPKI
BRANCH_DIRECT_JUMP: 0.00295
BRANCH_INDIRECT: 0.00032
BRANCH_CONDITIONAL: 25.6645
BRANCH_DIRECT_CALL: 0.00355
BRANCH_INDIRECT_CALL: 0.0008
BRANCH_RETURN: 0.00236

