
*** ChampSim Multicore Out-of-Order Simulator ***

Warmup Instructions: 10000000
Simulation Instructions: 100000000
Number of CPUs: 1
Off-chip DRAM Size: 4 GiB Channels: 1 Width: 64-bit Data Rate: 3200 MT/s

VirtualMemory physical capacity: 8588881920 num_ppages: 2096895
VirtualMemory page size: 4096 log2_page_size: 12

CPU 0 runs /datasets/cs240c-wi22-a00-public/data/Assignment2/gobmk_76B.trace.xz
CPU 0 Bimodal branch predictor
Basic BTB sets: 1024 ways: 8 indirect buffer size: 4096 RAS size: 64
Initialize Hawkeye state
Heartbeat CPU 0 instructions: 10000000 cycles: 2570358 heartbeat IPC: 3.89051 cumulative IPC: 3.89051 (Simulation time: 0 hr 1 min 16 sec) 

Warmup complete CPU 0 instructions: 10000004 cycles: 2570359 (Simulation time: 0 hr 1 min 16 sec) 

Heartbeat CPU 0 instructions: 20000001 cycles: 13792666 heartbeat IPC: 0.891082 cumulative IPC: 0.891082 (Simulation time: 0 hr 2 min 46 sec) 
Heartbeat CPU 0 instructions: 30000002 cycles: 24975668 heartbeat IPC: 0.894214 cumulative IPC: 0.892645 (Simulation time: 0 hr 4 min 17 sec) 
Heartbeat CPU 0 instructions: 40000000 cycles: 36244419 heartbeat IPC: 0.88741 cumulative IPC: 0.890893 (Simulation time: 0 hr 5 min 48 sec) 
Heartbeat CPU 0 instructions: 50000002 cycles: 48021266 heartbeat IPC: 0.849124 cumulative IPC: 0.88007 (Simulation time: 0 hr 7 min 21 sec) 
Heartbeat CPU 0 instructions: 60000002 cycles: 59676889 heartbeat IPC: 0.857955 cumulative IPC: 0.875557 (Simulation time: 0 hr 8 min 54 sec) 
Heartbeat CPU 0 instructions: 70000000 cycles: 71194204 heartbeat IPC: 0.868258 cumulative IPC: 0.874332 (Simulation time: 0 hr 10 min 28 sec) 
Heartbeat CPU 0 instructions: 80000003 cycles: 82643650 heartbeat IPC: 0.873405 cumulative IPC: 0.874199 (Simulation time: 0 hr 11 min 58 sec) 
Heartbeat CPU 0 instructions: 90000003 cycles: 94114849 heartbeat IPC: 0.871748 cumulative IPC: 0.873892 (Simulation time: 0 hr 13 min 31 sec) 
Heartbeat CPU 0 instructions: 100000002 cycles: 105559199 heartbeat IPC: 0.873794 cumulative IPC: 0.873881 (Simulation time: 0 hr 15 min 4 sec) 
Heartbeat CPU 0 instructions: 110000003 cycles: 117019623 heartbeat IPC: 0.872568 cumulative IPC: 0.87375 (Simulation time: 0 hr 16 min 36 sec) 
Finished CPU 0 instructions: 100000004 cycles: 114449265 cumulative IPC: 0.87375 (Simulation time: 0 hr 16 min 36 sec) 

ChampSim completed all CPUs

Region of Interest Statistics

CPU 0 cumulative IPC: 0.87375 instructions: 100000004 cycles: 114449265
cpu0_DTLB TOTAL     ACCESS:   21236019  HIT:   21094636  MISS:     141383
cpu0_DTLB LOAD      ACCESS:   15102797  HIT:   14976030  MISS:     126767
cpu0_DTLB RFO       ACCESS:    6133222  HIT:    6118606  MISS:      14616
cpu0_DTLB PREFETCH  ACCESS:          0  HIT:          0  MISS:          0
cpu0_DTLB WRITEBACK ACCESS:          0  HIT:          0  MISS:          0
cpu0_DTLB TRANSLATION ACCESS:          0  HIT:          0  MISS:          0
cpu0_DTLB PREFETCH  REQUESTED:          0  ISSUED:          0  USEFUL:          0  USELESS:          0
cpu0_DTLB AVERAGE MISS LATENCY: 10.7223 cycles
cpu0_ITLB TOTAL     ACCESS:    9135447  HIT:    9131769  MISS:       3678
cpu0_ITLB LOAD      ACCESS:    9135447  HIT:    9131769  MISS:       3678
cpu0_ITLB RFO       ACCESS:          0  HIT:          0  MISS:          0
cpu0_ITLB PREFETCH  ACCESS:          0  HIT:          0  MISS:          0
cpu0_ITLB WRITEBACK ACCESS:          0  HIT:          0  MISS:          0
cpu0_ITLB TRANSLATION ACCESS:          0  HIT:          0  MISS:          0
cpu0_ITLB PREFETCH  REQUESTED:          0  ISSUED:          0  USEFUL:          0  USELESS:          0
cpu0_ITLB AVERAGE MISS LATENCY: 9.43855 cycles
cpu0_L1I TOTAL     ACCESS:    7148615  HIT:    6835731  MISS:     312884
cpu0_L1I LOAD      ACCESS:    7148615  HIT:    6835731  MISS:     312884
cpu0_L1I RFO       ACCESS:          0  HIT:          0  MISS:          0
cpu0_L1I PREFETCH  ACCESS:          0  HIT:          0  MISS:          0
cpu0_L1I WRITEBACK ACCESS:          0  HIT:          0  MISS:          0
cpu0_L1I TRANSLATION ACCESS:          0  HIT:          0  MISS:          0
cpu0_L1I PREFETCH  REQUESTED:          0  ISSUED:          0  USEFUL:          0  USELESS:          0
cpu0_L1I AVERAGE MISS LATENCY: 12.7994 cycles
cpu0_STLB TOTAL     ACCESS:     145061  HIT:     142419  MISS:       2642
cpu0_STLB LOAD      ACCESS:     130445  HIT:     127974  MISS:       2471
cpu0_STLB RFO       ACCESS:      14616  HIT:      14445  MISS:        171
cpu0_STLB PREFETCH  ACCESS:          0  HIT:          0  MISS:          0
cpu0_STLB WRITEBACK ACCESS:          0  HIT:          0  MISS:          0
cpu0_STLB TRANSLATION ACCESS:          0  HIT:          0  MISS:          0
cpu0_STLB PREFETCH  REQUESTED:          0  ISSUED:          0  USEFUL:          0  USELESS:          0
cpu0_STLB AVERAGE MISS LATENCY: 92.5908 cycles
cpu0_L1D TOTAL     ACCESS:   25334548  HIT:   24725036  MISS:     609512
cpu0_L1D LOAD      ACCESS:   14877433  HIT:   14452778  MISS:     424655
cpu0_L1D RFO       ACCESS:   10454477  HIT:   10270149  MISS:     184328
cpu0_L1D PREFETCH  ACCESS:          0  HIT:          0  MISS:          0
cpu0_L1D WRITEBACK ACCESS:          0  HIT:          0  MISS:          0
cpu0_L1D TRANSLATION ACCESS:       2638  HIT:       2109  MISS:        529
cpu0_L1D PREFETCH  REQUESTED:          0  ISSUED:          0  USEFUL:          0  USELESS:          0
cpu0_L1D AVERAGE MISS LATENCY: 24.0476 cycles
cpu0_L2C TOTAL     ACCESS:    1188025  HIT:     976774  MISS:     211251
cpu0_L2C LOAD      ACCESS:     737536  HIT:     569772  MISS:     167764
cpu0_L2C RFO       ACCESS:     184327  HIT:     140928  MISS:      43399
cpu0_L2C PREFETCH  ACCESS:          0  HIT:          0  MISS:          0
cpu0_L2C WRITEBACK ACCESS:     265633  HIT:     265612  MISS:         21
cpu0_L2C TRANSLATION ACCESS:        529  HIT:        462  MISS:         67
cpu0_L2C PREFETCH  REQUESTED:          0  ISSUED:          0  USEFUL:          0  USELESS:          0
cpu0_L2C AVERAGE MISS LATENCY: 40.0951 cycles
LLC TOTAL     ACCESS:     302773  HIT:     279211  MISS:      23562
LLC LOAD      ACCESS:     167763  HIT:     148798  MISS:      18965
LLC RFO       ACCESS:      43395  HIT:      39500  MISS:       3895
LLC PREFETCH  ACCESS:          0  HIT:          0  MISS:          0
LLC WRITEBACK ACCESS:      91548  HIT:      90848  MISS:        700
LLC TRANSLATION ACCESS:         67  HIT:         65  MISS:          2
LLC PREFETCH  REQUESTED:          0  ISSUED:          0  USEFUL:          0  USELESS:          0
LLC AVERAGE MISS LATENCY: 171.224 cycles
OPTgen accesses: 3950
OPTgen hits: 3412
OPTgen hit rate: 86.3797



DRAM Statistics
 CHANNEL 0
 RQ ROW_BUFFER_HIT:       3760  ROW_BUFFER_MISS:      19099
 DBUS AVG_CONGESTED_CYCLE:     3.7761
 WQ ROW_BUFFER_HIT:        797  ROW_BUFFER_MISS:       3731  FULL:          0


CPU 0 Branch Prediction Accuracy: 88.0467% MPKI: 23.2346 Average ROB Occupancy at Mispredict: 18.4452
Branch type MPKI
BRANCH_DIRECT_JUMP: 0.00248
BRANCH_INDIRECT: 0.00086
BRANCH_CONDITIONAL: 23.171
BRANCH_DIRECT_CALL: 0.00309
BRANCH_INDIRECT_CALL: 0.05537
BRANCH_RETURN: 0.00174

