
*** ChampSim Multicore Out-of-Order Simulator ***

Warmup Instructions: 10000000
Simulation Instructions: 100000000
Number of CPUs: 1
Off-chip DRAM Size: 4 GiB Channels: 1 Width: 64-bit Data Rate: 3200 MT/s

VirtualMemory physical capacity: 8588881920 num_ppages: 2096895
VirtualMemory page size: 4096 log2_page_size: 12

CPU 0 runs /Users/brandon/Documents/CoursesWi22/CSE240C/Homework2/traces/bwaves_1609B.trace.xz
CPU 0 Bimodal branch predictor
Basic BTB sets: 1024 ways: 8 indirect buffer size: 4096 RAS size: 64
Initialize SRRIP state
Heartbeat CPU 0 instructions: 10000000 cycles: 4727853 heartbeat IPC: 2.11512 cumulative IPC: 2.11512 (Simulation time: 0 hr 2 min 27 sec) 

Warmup complete CPU 0 instructions: 10000001 cycles: 4727854 (Simulation time: 0 hr 2 min 27 sec) 

Heartbeat CPU 0 instructions: 20000002 cycles: 38919654 heartbeat IPC: 0.292468 cumulative IPC: 0.292468 (Simulation time: 0 hr 7 min 41 sec) 
Heartbeat CPU 0 instructions: 30000000 cycles: 73114324 heartbeat IPC: 0.292443 cumulative IPC: 0.292455 (Simulation time: 0 hr 12 min 51 sec) 
Heartbeat CPU 0 instructions: 40000002 cycles: 107308390 heartbeat IPC: 0.292448 cumulative IPC: 0.292453 (Simulation time: 0 hr 18 min 10 sec) 
Heartbeat CPU 0 instructions: 50000003 cycles: 141502668 heartbeat IPC: 0.292447 cumulative IPC: 0.292452 (Simulation time: 0 hr 23 min 20 sec) 
Heartbeat CPU 0 instructions: 60000001 cycles: 175694561 heartbeat IPC: 0.292467 cumulative IPC: 0.292455 (Simulation time: 0 hr 28 min 46 sec) 
Heartbeat CPU 0 instructions: 70000000 cycles: 209891366 heartbeat IPC: 0.292425 cumulative IPC: 0.29245 (Simulation time: 0 hr 34 min 0 sec) 
Heartbeat CPU 0 instructions: 80000004 cycles: 244085054 heartbeat IPC: 0.292452 cumulative IPC: 0.29245 (Simulation time: 0 hr 39 min 12 sec) 
Heartbeat CPU 0 instructions: 90000000 cycles: 278282102 heartbeat IPC: 0.292423 cumulative IPC: 0.292447 (Simulation time: 0 hr 44 min 23 sec) 
Heartbeat CPU 0 instructions: 100000000 cycles: 312471420 heartbeat IPC: 0.292489 cumulative IPC: 0.292451 (Simulation time: 0 hr 49 min 0 sec) 
Heartbeat CPU 0 instructions: 110000003 cycles: 346665170 heartbeat IPC: 0.292451 cumulative IPC: 0.292451 (Simulation time: 0 hr 53 min 16 sec) 
Finished CPU 0 instructions: 100000002 cycles: 341937316 cumulative IPC: 0.292451 (Simulation time: 0 hr 53 min 16 sec) 

ChampSim completed all CPUs

Region of Interest Statistics

CPU 0 cumulative IPC: 0.292451 instructions: 100000002 cycles: 341937316
cpu0_DTLB TOTAL     ACCESS:   37918452  HIT:   37837377  MISS:      81075
cpu0_DTLB LOAD      ACCESS:   36197066  HIT:   36116915  MISS:      80151
cpu0_DTLB RFO       ACCESS:    1721386  HIT:    1720462  MISS:        924
cpu0_DTLB PREFETCH  ACCESS:          0  HIT:          0  MISS:          0
cpu0_DTLB WRITEBACK ACCESS:          0  HIT:          0  MISS:          0
cpu0_DTLB TRANSLATION ACCESS:          0  HIT:          0  MISS:          0
cpu0_DTLB PREFETCH  REQUESTED:          0  ISSUED:          0  USEFUL:          0  USELESS:          0
cpu0_DTLB AVERAGE MISS LATENCY: 119.925 cycles
cpu0_ITLB TOTAL     ACCESS:    9626481  HIT:    9626481  MISS:          0
cpu0_ITLB LOAD      ACCESS:    9626481  HIT:    9626481  MISS:          0
cpu0_ITLB RFO       ACCESS:          0  HIT:          0  MISS:          0
cpu0_ITLB PREFETCH  ACCESS:          0  HIT:          0  MISS:          0
cpu0_ITLB WRITEBACK ACCESS:          0  HIT:          0  MISS:          0
cpu0_ITLB TRANSLATION ACCESS:          0  HIT:          0  MISS:          0
cpu0_ITLB PREFETCH  REQUESTED:          0  ISSUED:          0  USEFUL:          0  USELESS:          0
cpu0_ITLB AVERAGE MISS LATENCY: nan cycles
cpu0_STLB TOTAL     ACCESS:      81075  HIT:      46532  MISS:      34543
cpu0_STLB LOAD      ACCESS:      80151  HIT:      46520  MISS:      33631
cpu0_STLB RFO       ACCESS:        924  HIT:         12  MISS:        912
cpu0_STLB PREFETCH  ACCESS:          0  HIT:          0  MISS:          0
cpu0_STLB WRITEBACK ACCESS:          0  HIT:          0  MISS:          0
cpu0_STLB TRANSLATION ACCESS:          0  HIT:          0  MISS:          0
cpu0_STLB PREFETCH  REQUESTED:          0  ISSUED:          0  USEFUL:          0  USELESS:          0
cpu0_STLB AVERAGE MISS LATENCY: 259.729 cycles
cpu0_L1D TOTAL     ACCESS:   36058205  HIT:   33660661  MISS:    2397544
cpu0_L1D LOAD      ACCESS:   33288754  HIT:   30952086  MISS:    2336668
cpu0_L1D RFO       ACCESS:    2734908  HIT:    2676530  MISS:      58378
cpu0_L1D PREFETCH  ACCESS:          0  HIT:          0  MISS:          0
cpu0_L1D WRITEBACK ACCESS:          0  HIT:          0  MISS:          0
cpu0_L1D TRANSLATION ACCESS:      34543  HIT:      32045  MISS:       2498
cpu0_L1D PREFETCH  REQUESTED:          0  ISSUED:          0  USEFUL:          0  USELESS:          0
cpu0_L1D AVERAGE MISS LATENCY: 1171.39 cycles
cpu0_L2C TOTAL     ACCESS:    2455928  HIT:     179153  MISS:    2276775
cpu0_L2C LOAD      ACCESS:    2336668  HIT:     118282  MISS:    2218386
cpu0_L2C RFO       ACCESS:      58378  HIT:          0  MISS:      58378
cpu0_L2C PREFETCH  ACCESS:          0  HIT:          0  MISS:          0
cpu0_L2C WRITEBACK ACCESS:      58384  HIT:      58384  MISS:          0
cpu0_L2C TRANSLATION ACCESS:       2498  HIT:       2487  MISS:         11
cpu0_L2C PREFETCH  REQUESTED:          0  ISSUED:          0  USEFUL:          0  USELESS:          0
cpu0_L2C AVERAGE MISS LATENCY: 1221.4 cycles
LLC TOTAL     ACCESS:    2335143  HIT:     117225  MISS:    2217918
LLC LOAD      ACCESS:    2218386  HIT:     116770  MISS:    2101616
LLC RFO       ACCESS:      58378  HIT:          0  MISS:      58378
LLC PREFETCH  ACCESS:          0  HIT:          0  MISS:          0
LLC WRITEBACK ACCESS:      58368  HIT:        452  MISS:      57916
LLC TRANSLATION ACCESS:         11  HIT:          3  MISS:          8
LLC PREFETCH  REQUESTED:          0  ISSUED:          0  USEFUL:          0  USELESS:          0
LLC AVERAGE MISS LATENCY: 1232.25 cycles
Insertion Distribution: 
	LOAD 61467 0 28712 2228890 
	RFO 0 0 1300 62917 
	PREF 0 0 0 0 
	WRITEBACK 0 0 0 62216 
	 0 0 18 9 
Total Prefetch Downgrades: 0

DRAM Statistics
 CHANNEL 0
 RQ ROW_BUFFER_HIT:        201  ROW_BUFFER_MISS:    2159801
 DBUS AVG_CONGESTED_CYCLE:    3.99822
 WQ ROW_BUFFER_HIT:      12465  ROW_BUFFER_MISS:      47078  FULL:          0


CPU 0 Branch Prediction Accuracy: 62.439% MPKI: 11.2378 Average ROB Occupancy at Mispredict: 168.283
Branch type MPKI
BRANCH_DIRECT_JUMP: 0
BRANCH_INDIRECT: 0
BRANCH_CONDITIONAL: 11.2378
BRANCH_DIRECT_CALL: 0
BRANCH_INDIRECT_CALL: 0
BRANCH_RETURN: 0

