
*** ChampSim Multicore Out-of-Order Simulator ***

Warmup Instructions: 10000000
Simulation Instructions: 100000000
Number of CPUs: 1
Off-chip DRAM Size: 4 GiB Channels: 1 Width: 64-bit Data Rate: 3200 MT/s

VirtualMemory physical capacity: 8588881920 num_ppages: 2096895
VirtualMemory page size: 4096 log2_page_size: 12

CPU 0 runs /Users/brandon/Documents/CoursesWi22/CSE240C/Homework2/traces/h264ref_351B.trace.xz
CPU 0 Bimodal branch predictor
Basic BTB sets: 1024 ways: 8 indirect buffer size: 4096 RAS size: 64
Initialize SRRIP state
Heartbeat CPU 0 instructions: 10000003 cycles: 3499510 heartbeat IPC: 2.85754 cumulative IPC: 2.85754 (Simulation time: 0 hr 1 min 21 sec) 

Warmup complete CPU 0 instructions: 10000003 cycles: 3499510 (Simulation time: 0 hr 1 min 21 sec) 

Heartbeat CPU 0 instructions: 20000000 cycles: 12234281 heartbeat IPC: 1.14485 cumulative IPC: 1.14485 (Simulation time: 0 hr 2 min 23 sec) 
Heartbeat CPU 0 instructions: 30000000 cycles: 18585357 heartbeat IPC: 1.57454 cumulative IPC: 1.32575 (Simulation time: 0 hr 4 min 9 sec) 
Heartbeat CPU 0 instructions: 40000001 cycles: 24730371 heartbeat IPC: 1.62734 cumulative IPC: 1.41304 (Simulation time: 0 hr 5 min 56 sec) 
Heartbeat CPU 0 instructions: 50000000 cycles: 31307215 heartbeat IPC: 1.52049 cumulative IPC: 1.43845 (Simulation time: 0 hr 7 min 2 sec) 
Heartbeat CPU 0 instructions: 60000002 cycles: 39098780 heartbeat IPC: 1.28344 cumulative IPC: 1.40452 (Simulation time: 0 hr 8 min 5 sec) 
Heartbeat CPU 0 instructions: 70000001 cycles: 45169337 heartbeat IPC: 1.6473 cumulative IPC: 1.43989 (Simulation time: 0 hr 9 min 43 sec) 
Heartbeat CPU 0 instructions: 80000004 cycles: 51108915 heartbeat IPC: 1.68362 cumulative IPC: 1.4703 (Simulation time: 0 hr 11 min 16 sec) 
Heartbeat CPU 0 instructions: 90000004 cycles: 57834198 heartbeat IPC: 1.48693 cumulative IPC: 1.47236 (Simulation time: 0 hr 12 min 12 sec) 
Heartbeat CPU 0 instructions: 100000001 cycles: 65274894 heartbeat IPC: 1.34396 cumulative IPC: 1.45689 (Simulation time: 0 hr 13 min 25 sec) 
Heartbeat CPU 0 instructions: 110000001 cycles: 71338182 heartbeat IPC: 1.64927 cumulative IPC: 1.47409 (Simulation time: 0 hr 15 min 3 sec) 
Finished CPU 0 instructions: 100000003 cycles: 67838673 cumulative IPC: 1.47409 (Simulation time: 0 hr 15 min 3 sec) 

ChampSim completed all CPUs

Region of Interest Statistics

CPU 0 cumulative IPC: 1.47409 instructions: 100000003 cycles: 67838673
cpu0_DTLB TOTAL     ACCESS:   21999467  HIT:   21963585  MISS:      35882
cpu0_DTLB LOAD      ACCESS:   18622754  HIT:   18589978  MISS:      32776
cpu0_DTLB RFO       ACCESS:    3376713  HIT:    3373607  MISS:       3106
cpu0_DTLB PREFETCH  ACCESS:          0  HIT:          0  MISS:          0
cpu0_DTLB WRITEBACK ACCESS:          0  HIT:          0  MISS:          0
cpu0_DTLB TRANSLATION ACCESS:          0  HIT:          0  MISS:          0
cpu0_DTLB PREFETCH  REQUESTED:          0  ISSUED:          0  USEFUL:          0  USELESS:          0
cpu0_DTLB AVERAGE MISS LATENCY: 12.2274 cycles
cpu0_ITLB TOTAL     ACCESS:    6597669  HIT:    6597209  MISS:        460
cpu0_ITLB LOAD      ACCESS:    6597669  HIT:    6597209  MISS:        460
cpu0_ITLB RFO       ACCESS:          0  HIT:          0  MISS:          0
cpu0_ITLB PREFETCH  ACCESS:          0  HIT:          0  MISS:          0
cpu0_ITLB WRITEBACK ACCESS:          0  HIT:          0  MISS:          0
cpu0_ITLB TRANSLATION ACCESS:          0  HIT:          0  MISS:          0
cpu0_ITLB PREFETCH  REQUESTED:          0  ISSUED:          0  USEFUL:          0  USELESS:          0
cpu0_ITLB AVERAGE MISS LATENCY: 26.2217 cycles
cpu0_L1I TOTAL     ACCESS:    4924834  HIT:    4899421  MISS:      25413
cpu0_L1I LOAD      ACCESS:    4924834  HIT:    4899421  MISS:      25413
cpu0_L1I RFO       ACCESS:          0  HIT:          0  MISS:          0
cpu0_L1I PREFETCH  ACCESS:          0  HIT:          0  MISS:          0
cpu0_L1I WRITEBACK ACCESS:          0  HIT:          0  MISS:          0
cpu0_L1I TRANSLATION ACCESS:          0  HIT:          0  MISS:          0
cpu0_L1I PREFETCH  REQUESTED:          0  ISSUED:          0  USEFUL:          0  USELESS:          0
cpu0_L1I AVERAGE MISS LATENCY: 42.2343 cycles
cpu0_STLB TOTAL     ACCESS:      36342  HIT:      35210  MISS:       1132
cpu0_STLB LOAD      ACCESS:      33236  HIT:      32336  MISS:        900
cpu0_STLB RFO       ACCESS:       3106  HIT:       2874  MISS:        232
cpu0_STLB PREFETCH  ACCESS:          0  HIT:          0  MISS:          0
cpu0_STLB WRITEBACK ACCESS:          0  HIT:          0  MISS:          0
cpu0_STLB TRANSLATION ACCESS:          0  HIT:          0  MISS:          0
cpu0_STLB PREFETCH  REQUESTED:          0  ISSUED:          0  USEFUL:          0  USELESS:          0
cpu0_STLB AVERAGE MISS LATENCY: 108.458 cycles
cpu0_L1D TOTAL     ACCESS:   23787506  HIT:   23473165  MISS:     314341
cpu0_L1D LOAD      ACCESS:   17652318  HIT:   17425419  MISS:     226899
cpu0_L1D RFO       ACCESS:    6134094  HIT:    6046894  MISS:      87200
cpu0_L1D PREFETCH  ACCESS:          0  HIT:          0  MISS:          0
cpu0_L1D WRITEBACK ACCESS:          0  HIT:          0  MISS:          0
cpu0_L1D TRANSLATION ACCESS:       1094  HIT:        852  MISS:        242
cpu0_L1D PREFETCH  REQUESTED:          0  ISSUED:          0  USEFUL:          0  USELESS:          0
cpu0_L1D AVERAGE MISS LATENCY: 69.8486 cycles
cpu0_L2C TOTAL     ACCESS:     428268  HIT:     237223  MISS:     191045
cpu0_L2C LOAD      ACCESS:     252311  HIT:     142062  MISS:     110249
cpu0_L2C RFO       ACCESS:      87200  HIT:       6600  MISS:      80600
cpu0_L2C PREFETCH  ACCESS:          0  HIT:          0  MISS:          0
cpu0_L2C WRITEBACK ACCESS:      88515  HIT:      88341  MISS:        174
cpu0_L2C TRANSLATION ACCESS:        242  HIT:        220  MISS:         22
cpu0_L2C PREFETCH  REQUESTED:          0  ISSUED:          0  USEFUL:          0  USELESS:          0
cpu0_L2C AVERAGE MISS LATENCY: 100.911 cycles
LLC TOTAL     ACCESS:     266196  HIT:     184733  MISS:      81463
LLC LOAD      ACCESS:     110249  HIT:      63566  MISS:      46683
LLC RFO       ACCESS:      80600  HIT:      52373  MISS:      28227
LLC PREFETCH  ACCESS:          0  HIT:          0  MISS:          0
LLC WRITEBACK ACCESS:      75325  HIT:      68781  MISS:       6544
LLC TRANSLATION ACCESS:         22  HIT:         13  MISS:          9
LLC PREFETCH  REQUESTED:          0  ISSUED:          0  USEFUL:          0  USELESS:          0
LLC AVERAGE MISS LATENCY: 187.446 cycles
Insertion Distribution: 
	LOAD 8798 0 32176 18655 
	RFO 14320 0 12993 6985 
	PREF 0 0 0 0 
	WRITEBACK 0 0 0 6544 
	 1 0 18 1 
Total Prefetch Downgrades: 0

DRAM Statistics
 CHANNEL 0
 RQ ROW_BUFFER_HIT:      26235  ROW_BUFFER_MISS:      48652
 DBUS AVG_CONGESTED_CYCLE:    3.89152
 WQ ROW_BUFFER_HIT:       3445  ROW_BUFFER_MISS:      22223  FULL:          0


CPU 0 Branch Prediction Accuracy: 92.8368% MPKI: 5.81059 Average ROB Occupancy at Mispredict: 122.804
Branch type MPKI
BRANCH_DIRECT_JUMP: 0.00172
BRANCH_INDIRECT: 0.00314
BRANCH_CONDITIONAL: 5.80098
BRANCH_DIRECT_CALL: 0.00111
BRANCH_INDIRECT_CALL: 0.00157
BRANCH_RETURN: 0.00207

