
*** ChampSim Multicore Out-of-Order Simulator ***

Warmup Instructions: 10000000
Simulation Instructions: 100000000
Number of CPUs: 1
Off-chip DRAM Size: 4 GiB Channels: 1 Width: 64-bit Data Rate: 3200 MT/s

VirtualMemory physical capacity: 8588881920 num_ppages: 2096895
VirtualMemory page size: 4096 log2_page_size: 12

CPU 0 runs /Users/brandon/Documents/CoursesWi22/CSE240C/Homework2/traces/leslie3d_1186B.trace.xz
CPU 0 Bimodal branch predictor
Basic BTB sets: 1024 ways: 8 indirect buffer size: 4096 RAS size: 64
Initialize SRRIP state
Heartbeat CPU 0 instructions: 10000000 cycles: 4308817 heartbeat IPC: 2.32082 cumulative IPC: 2.32082 (Simulation time: 0 hr 1 min 50 sec) 

Warmup complete CPU 0 instructions: 10000005 cycles: 4308818 (Simulation time: 0 hr 1 min 50 sec) 

Heartbeat CPU 0 instructions: 20000000 cycles: 17671853 heartbeat IPC: 0.748333 cumulative IPC: 0.748333 (Simulation time: 0 hr 4 min 51 sec) 
Heartbeat CPU 0 instructions: 30000000 cycles: 31497053 heartbeat IPC: 0.723317 cumulative IPC: 0.735612 (Simulation time: 0 hr 8 min 5 sec) 
Heartbeat CPU 0 instructions: 40000002 cycles: 44991413 heartbeat IPC: 0.74105 cumulative IPC: 0.737416 (Simulation time: 0 hr 11 min 21 sec) 
Heartbeat CPU 0 instructions: 50000001 cycles: 61950827 heartbeat IPC: 0.589643 cumulative IPC: 0.693938 (Simulation time: 0 hr 14 min 45 sec) 
Heartbeat CPU 0 instructions: 60000000 cycles: 97547168 heartbeat IPC: 0.280928 cumulative IPC: 0.53626 (Simulation time: 0 hr 20 min 59 sec) 
Heartbeat CPU 0 instructions: 70000004 cycles: 126144754 heartbeat IPC: 0.34968 cumulative IPC: 0.492466 (Simulation time: 0 hr 26 min 27 sec) 
Heartbeat CPU 0 instructions: 80000002 cycles: 136414882 heartbeat IPC: 0.973697 cumulative IPC: 0.529877 (Simulation time: 0 hr 29 min 11 sec) 
Heartbeat CPU 0 instructions: 90000002 cycles: 146564499 heartbeat IPC: 0.985259 cumulative IPC: 0.562368 (Simulation time: 0 hr 32 min 5 sec) 
Heartbeat CPU 0 instructions: 100000000 cycles: 156705883 heartbeat IPC: 0.986059 cumulative IPC: 0.590563 (Simulation time: 0 hr 34 min 53 sec) 
Heartbeat CPU 0 instructions: 110000000 cycles: 166868578 heartbeat IPC: 0.983991 cumulative IPC: 0.615158 (Simulation time: 0 hr 37 min 42 sec) 
Finished CPU 0 instructions: 100000000 cycles: 162559761 cumulative IPC: 0.615158 (Simulation time: 0 hr 37 min 42 sec) 

ChampSim completed all CPUs

Region of Interest Statistics

CPU 0 cumulative IPC: 0.615158 instructions: 100000000 cycles: 162559761
cpu0_DTLB TOTAL     ACCESS:   27961152  HIT:   27863664  MISS:      97488
cpu0_DTLB LOAD      ACCESS:   23294141  HIT:   23208404  MISS:      85737
cpu0_DTLB RFO       ACCESS:    4667011  HIT:    4655260  MISS:      11751
cpu0_DTLB PREFETCH  ACCESS:          0  HIT:          0  MISS:          0
cpu0_DTLB WRITEBACK ACCESS:          0  HIT:          0  MISS:          0
cpu0_DTLB TRANSLATION ACCESS:          0  HIT:          0  MISS:          0
cpu0_DTLB PREFETCH  REQUESTED:          0  ISSUED:          0  USEFUL:          0  USELESS:          0
cpu0_DTLB AVERAGE MISS LATENCY: 52.1573 cycles
cpu0_ITLB TOTAL     ACCESS:    2910701  HIT:    2910688  MISS:         13
cpu0_ITLB LOAD      ACCESS:    2910701  HIT:    2910688  MISS:         13
cpu0_ITLB RFO       ACCESS:          0  HIT:          0  MISS:          0
cpu0_ITLB PREFETCH  ACCESS:          0  HIT:          0  MISS:          0
cpu0_ITLB WRITEBACK ACCESS:          0  HIT:          0  MISS:          0
cpu0_ITLB TRANSLATION ACCESS:          0  HIT:          0  MISS:          0
cpu0_ITLB PREFETCH  REQUESTED:          0  ISSUED:          0  USEFUL:          0  USELESS:          0
cpu0_ITLB AVERAGE MISS LATENCY: 227.154 cycles
cpu0_L1I TOTAL     ACCESS:    1737273  HIT:    1736893  MISS:        380
cpu0_L1I LOAD      ACCESS:    1737273  HIT:    1736893  MISS:        380
cpu0_L1I RFO       ACCESS:          0  HIT:          0  MISS:          0
cpu0_L1I PREFETCH  ACCESS:          0  HIT:          0  MISS:          0
cpu0_L1I WRITEBACK ACCESS:          0  HIT:          0  MISS:          0
cpu0_L1I TRANSLATION ACCESS:          0  HIT:          0  MISS:          0
cpu0_L1I PREFETCH  REQUESTED:          0  ISSUED:          0  USEFUL:          0  USELESS:          0
cpu0_L1I AVERAGE MISS LATENCY: 330.684 cycles
cpu0_STLB TOTAL     ACCESS:      97501  HIT:      70099  MISS:      27402
cpu0_STLB LOAD      ACCESS:      85750  HIT:      63023  MISS:      22727
cpu0_STLB RFO       ACCESS:      11751  HIT:       7076  MISS:       4675
cpu0_STLB PREFETCH  ACCESS:          0  HIT:          0  MISS:          0
cpu0_STLB WRITEBACK ACCESS:          0  HIT:          0  MISS:          0
cpu0_STLB TRANSLATION ACCESS:          0  HIT:          0  MISS:          0
cpu0_STLB PREFETCH  REQUESTED:          0  ISSUED:          0  USEFUL:          0  USELESS:          0
cpu0_STLB AVERAGE MISS LATENCY: 153.589 cycles
cpu0_L1D TOTAL     ACCESS:   27064860  HIT:   23161855  MISS:    3903005
cpu0_L1D LOAD      ACCESS:   17838008  HIT:   14654001  MISS:    3184007
cpu0_L1D RFO       ACCESS:    9202295  HIT:    8486740  MISS:     715555
cpu0_L1D PREFETCH  ACCESS:          0  HIT:          0  MISS:          0
cpu0_L1D WRITEBACK ACCESS:          0  HIT:          0  MISS:          0
cpu0_L1D TRANSLATION ACCESS:      24557  HIT:      21114  MISS:       3443
cpu0_L1D PREFETCH  REQUESTED:          0  ISSUED:          0  USEFUL:          0  USELESS:          0
cpu0_L1D AVERAGE MISS LATENCY: 352.194 cycles
cpu0_L2C TOTAL     ACCESS:    4956542  HIT:    2406807  MISS:    2549735
cpu0_L2C LOAD      ACCESS:    3184333  HIT:    1043421  MISS:    2140912
cpu0_L2C RFO       ACCESS:     715255  HIT:     309249  MISS:     406006
cpu0_L2C PREFETCH  ACCESS:          0  HIT:          0  MISS:          0
cpu0_L2C WRITEBACK ACCESS:    1053511  HIT:    1050944  MISS:       2567
cpu0_L2C TRANSLATION ACCESS:       3443  HIT:       3193  MISS:        250
cpu0_L2C PREFETCH  REQUESTED:          0  ISSUED:          0  USEFUL:          0  USELESS:          0
cpu0_L2C AVERAGE MISS LATENCY: 522.275 cycles
LLC TOTAL     ACCESS:    3209880  HIT:     836171  MISS:    2373709
LLC LOAD      ACCESS:    2140907  HIT:     540838  MISS:    1600069
LLC RFO       ACCESS:     405997  HIT:     114225  MISS:     291772
LLC PREFETCH  ACCESS:          0  HIT:          0  MISS:          0
LLC WRITEBACK ACCESS:     662726  HIT:     180906  MISS:     481820
LLC TRANSLATION ACCESS:        250  HIT:        202  MISS:         48
LLC PREFETCH  REQUESTED:          0  ISSUED:          0  USEFUL:          0  USELESS:          0
LLC AVERAGE MISS LATENCY: 538.464 cycles
Insertion Distribution: 
	LOAD 205445 0 230168 1330940 
	RFO 1945 0 22829 269113 
	PREF 0 0 0 0 
	WRITEBACK 0 0 0 500318 
	 0 0 43 29 
Total Prefetch Downgrades: 0

DRAM Statistics
 CHANNEL 0
 RQ ROW_BUFFER_HIT:     213319  ROW_BUFFER_MISS:    1678471
 DBUS AVG_CONGESTED_CYCLE:    3.94845
 WQ ROW_BUFFER_HIT:      41539  ROW_BUFFER_MISS:     489044  FULL:      12678


CPU 0 Branch Prediction Accuracy: 96.8384% MPKI: 1.47634 Average ROB Occupancy at Mispredict: 311.071
Branch type MPKI
BRANCH_DIRECT_JUMP: 0.00016
BRANCH_INDIRECT: 0
BRANCH_CONDITIONAL: 1.47504
BRANCH_DIRECT_CALL: 0.00057
BRANCH_INDIRECT_CALL: 0
BRANCH_RETURN: 0.00057

