
*** ChampSim Multicore Out-of-Order Simulator ***

Warmup Instructions: 10000000
Simulation Instructions: 100000000
Number of CPUs: 1
Off-chip DRAM Size: 4 GiB Channels: 1 Width: 64-bit Data Rate: 3200 MT/s

VirtualMemory physical capacity: 8588881920 num_ppages: 2096895
VirtualMemory page size: 4096 log2_page_size: 12

CPU 0 runs /Users/brandon/Documents/CoursesWi22/CSE240C/Homework2/traces/mcf_158B.trace.xz
CPU 0 Bimodal branch predictor
Basic BTB sets: 1024 ways: 8 indirect buffer size: 4096 RAS size: 64
Initialize SRRIP state
Heartbeat CPU 0 instructions: 10000002 cycles: 3864087 heartbeat IPC: 2.58793 cumulative IPC: 2.58793 (Simulation time: 0 hr 1 min 27 sec) 

Warmup complete CPU 0 instructions: 10000002 cycles: 3864087 (Simulation time: 0 hr 1 min 27 sec) 

Heartbeat CPU 0 instructions: 20000000 cycles: 135974526 heartbeat IPC: 0.0756942 cumulative IPC: 0.0756942 (Simulation time: 0 hr 5 min 10 sec) 
Heartbeat CPU 0 instructions: 30000000 cycles: 262203125 heartbeat IPC: 0.0792214 cumulative IPC: 0.0774176 (Simulation time: 0 hr 8 min 41 sec) 
Heartbeat CPU 0 instructions: 40000001 cycles: 385762978 heartbeat IPC: 0.0809324 cumulative IPC: 0.0785548 (Simulation time: 0 hr 12 min 4 sec) 
Heartbeat CPU 0 instructions: 50000000 cycles: 499736095 heartbeat IPC: 0.08774 cumulative IPC: 0.080666 (Simulation time: 0 hr 15 min 5 sec) 
Heartbeat CPU 0 instructions: 60000000 cycles: 609924521 heartbeat IPC: 0.0907536 cumulative IPC: 0.0825 (Simulation time: 0 hr 18 min 10 sec) 
Heartbeat CPU 0 instructions: 70000002 cycles: 718034667 heartbeat IPC: 0.0924983 cumulative IPC: 0.0840135 (Simulation time: 0 hr 21 min 10 sec) 
Heartbeat CPU 0 instructions: 80000000 cycles: 828800848 heartbeat IPC: 0.0902802 cumulative IPC: 0.084855 (Simulation time: 0 hr 24 min 10 sec) 
Heartbeat CPU 0 instructions: 90000003 cycles: 943347275 heartbeat IPC: 0.0873009 cumulative IPC: 0.0851532 (Simulation time: 0 hr 27 min 12 sec) 
Heartbeat CPU 0 instructions: 100000003 cycles: 1059642757 heartbeat IPC: 0.0859879 cumulative IPC: 0.0852451 (Simulation time: 0 hr 30 min 15 sec) 
Heartbeat CPU 0 instructions: 110000001 cycles: 1177996719 heartbeat IPC: 0.0844923 cumulative IPC: 0.0851693 (Simulation time: 0 hr 33 min 14 sec) 
Finished CPU 0 instructions: 100000002 cycles: 1174132633 cumulative IPC: 0.0851693 (Simulation time: 0 hr 33 min 14 sec) 

ChampSim completed all CPUs

Region of Interest Statistics

CPU 0 cumulative IPC: 0.0851693 instructions: 100000002 cycles: 1174132633
cpu0_DTLB TOTAL     ACCESS:   23546666  HIT:   12724956  MISS:   10821710
cpu0_DTLB LOAD      ACCESS:   20429141  HIT:    9974566  MISS:   10454575
cpu0_DTLB RFO       ACCESS:    3117525  HIT:    2750390  MISS:     367135
cpu0_DTLB PREFETCH  ACCESS:          0  HIT:          0  MISS:          0
cpu0_DTLB WRITEBACK ACCESS:          0  HIT:          0  MISS:          0
cpu0_DTLB TRANSLATION ACCESS:          0  HIT:          0  MISS:          0
cpu0_DTLB PREFETCH  REQUESTED:          0  ISSUED:          0  USEFUL:          0  USELESS:          0
cpu0_DTLB AVERAGE MISS LATENCY: 11.0822 cycles
cpu0_ITLB TOTAL     ACCESS:   12963126  HIT:   12963126  MISS:          0
cpu0_ITLB LOAD      ACCESS:   12963126  HIT:   12963126  MISS:          0
cpu0_ITLB RFO       ACCESS:          0  HIT:          0  MISS:          0
cpu0_ITLB PREFETCH  ACCESS:          0  HIT:          0  MISS:          0
cpu0_ITLB WRITEBACK ACCESS:          0  HIT:          0  MISS:          0
cpu0_ITLB TRANSLATION ACCESS:          0  HIT:          0  MISS:          0
cpu0_ITLB PREFETCH  REQUESTED:          0  ISSUED:          0  USEFUL:          0  USELESS:          0
cpu0_ITLB AVERAGE MISS LATENCY: nan cycles
cpu0_L1I TOTAL     ACCESS:         19  HIT:         14  MISS:          5
cpu0_L1I LOAD      ACCESS:         19  HIT:         14  MISS:          5
cpu0_L1I RFO       ACCESS:          0  HIT:          0  MISS:          0
cpu0_L1I PREFETCH  ACCESS:          0  HIT:          0  MISS:          0
cpu0_L1I WRITEBACK ACCESS:          0  HIT:          0  MISS:          0
cpu0_L1I TRANSLATION ACCESS:          0  HIT:          0  MISS:          0
cpu0_L1I PREFETCH  REQUESTED:          0  ISSUED:          0  USEFUL:          0  USELESS:          0
cpu0_L1I AVERAGE MISS LATENCY: 194.4 cycles
cpu0_STLB TOTAL     ACCESS:   10821710  HIT:    9710418  MISS:    1111292
cpu0_STLB LOAD      ACCESS:   10454575  HIT:    9350048  MISS:    1104527
cpu0_STLB RFO       ACCESS:     367135  HIT:     360370  MISS:       6765
cpu0_STLB PREFETCH  ACCESS:          0  HIT:          0  MISS:          0
cpu0_STLB WRITEBACK ACCESS:          0  HIT:          0  MISS:          0
cpu0_STLB TRANSLATION ACCESS:          0  HIT:          0  MISS:          0
cpu0_STLB PREFETCH  REQUESTED:          0  ISSUED:          0  USEFUL:          0  USELESS:          0
cpu0_STLB AVERAGE MISS LATENCY: 20.2381 cycles
cpu0_L1D TOTAL     ACCESS:   27611990  HIT:   14068649  MISS:   13543341
cpu0_L1D LOAD      ACCESS:   22265156  HIT:    9095720  MISS:   13169436
cpu0_L1D RFO       ACCESS:    4239048  HIT:    4033984  MISS:     205064
cpu0_L1D PREFETCH  ACCESS:          0  HIT:          0  MISS:          0
cpu0_L1D WRITEBACK ACCESS:          0  HIT:          0  MISS:          0
cpu0_L1D TRANSLATION ACCESS:    1107786  HIT:     938945  MISS:     168841
cpu0_L1D PREFETCH  REQUESTED:          0  ISSUED:          0  USEFUL:          0  USELESS:          0
cpu0_L1D AVERAGE MISS LATENCY: 155.183 cycles
cpu0_L2C TOTAL     ACCESS:   15653223  HIT:    6143344  MISS:    9509879
cpu0_L2C LOAD      ACCESS:   13169054  HIT:    3840914  MISS:    9328140
cpu0_L2C RFO       ACCESS:     205058  HIT:      71898  MISS:     133160
cpu0_L2C PREFETCH  ACCESS:          0  HIT:          0  MISS:          0
cpu0_L2C WRITEBACK ACCESS:    2110270  HIT:    2110010  MISS:        260
cpu0_L2C TRANSLATION ACCESS:     168841  HIT:     120522  MISS:      48319
cpu0_L2C PREFETCH  REQUESTED:          0  ISSUED:          0  USEFUL:          0  USELESS:          0
cpu0_L2C AVERAGE MISS LATENCY: 205.263 cycles
LLC TOTAL     ACCESS:   11016052  HIT:    4691537  MISS:    6324515
LLC LOAD      ACCESS:    9328140  HIT:    3659549  MISS:    5668591
LLC RFO       ACCESS:     133160  HIT:      77072  MISS:      56088
LLC PREFETCH  ACCESS:          0  HIT:          0  MISS:          0
LLC WRITEBACK ACCESS:    1506433  HIT:     915618  MISS:     590815
LLC TRANSLATION ACCESS:      48319  HIT:      39298  MISS:       9021
LLC PREFETCH  REQUESTED:          0  ISSUED:          0  USEFUL:          0  USELESS:          0
LLC AVERAGE MISS LATENCY: 277.069 cycles
Insertion Distribution: 
	LOAD 88155 0 62569 6200650 
	RFO 763 0 1879 55913 
	PREF 0 0 0 0 
	WRITEBACK 0 0 0 614374 
	 4 0 189 9225 
Total Prefetch Downgrades: 0

DRAM Statistics
 CHANNEL 0
 RQ ROW_BUFFER_HIT:      10618  ROW_BUFFER_MISS:    5722793
 DBUS AVG_CONGESTED_CYCLE:     3.9503
 WQ ROW_BUFFER_HIT:      30469  ROW_BUFFER_MISS:     616088  FULL:          0


CPU 0 Branch Prediction Accuracy: 85.5988% MPKI: 40.2398 Average ROB Occupancy at Mispredict: 17.2867
Branch type MPKI
BRANCH_DIRECT_JUMP: 4e-05
BRANCH_INDIRECT: 0
BRANCH_CONDITIONAL: 40.2397
BRANCH_DIRECT_CALL: 0
BRANCH_INDIRECT_CALL: 0
BRANCH_RETURN: 0

