
*** ChampSim Multicore Out-of-Order Simulator ***

Warmup Instructions: 10000000
Simulation Instructions: 100000000
Number of CPUs: 1
Off-chip DRAM Size: 4 GiB Channels: 1 Width: 64-bit Data Rate: 3200 MT/s

VirtualMemory physical capacity: 8588881920 num_ppages: 2096895
VirtualMemory page size: 4096 log2_page_size: 12

CPU 0 runs /Users/brandon/Documents/CoursesWi22/CSE240C/Homework2/traces/mcf_250B.trace.xz
CPU 0 Bimodal branch predictor
Basic BTB sets: 1024 ways: 8 indirect buffer size: 4096 RAS size: 64
Initialize SRRIP state
Heartbeat CPU 0 instructions: 10000001 cycles: 3834278 heartbeat IPC: 2.60805 cumulative IPC: 2.60805 (Simulation time: 0 hr 1 min 32 sec) 

Warmup complete CPU 0 instructions: 10000001 cycles: 3834278 (Simulation time: 0 hr 1 min 32 sec) 

Heartbeat CPU 0 instructions: 20000000 cycles: 146326931 heartbeat IPC: 0.0701791 cumulative IPC: 0.0701791 (Simulation time: 0 hr 6 min 8 sec) 
Heartbeat CPU 0 instructions: 30000000 cycles: 283696108 heartbeat IPC: 0.0727965 cumulative IPC: 0.0714638 (Simulation time: 0 hr 10 min 25 sec) 
Heartbeat CPU 0 instructions: 40000000 cycles: 428445219 heartbeat IPC: 0.0690851 cumulative IPC: 0.0706529 (Simulation time: 0 hr 14 min 55 sec) 
Heartbeat CPU 0 instructions: 50000000 cycles: 568920600 heartbeat IPC: 0.0711868 cumulative IPC: 0.0707856 (Simulation time: 0 hr 19 min 20 sec) 
Heartbeat CPU 0 instructions: 60000000 cycles: 708917774 heartbeat IPC: 0.07143 cumulative IPC: 0.0709136 (Simulation time: 0 hr 23 min 40 sec) 
Heartbeat CPU 0 instructions: 70000000 cycles: 842344216 heartbeat IPC: 0.0749477 cumulative IPC: 0.0715555 (Simulation time: 0 hr 27 min 40 sec) 
Heartbeat CPU 0 instructions: 80000000 cycles: 985560094 heartbeat IPC: 0.0698247 cumulative IPC: 0.071303 (Simulation time: 0 hr 32 min 9 sec) 
Heartbeat CPU 0 instructions: 90000000 cycles: 1107413526 heartbeat IPC: 0.0820658 cumulative IPC: 0.0724914 (Simulation time: 0 hr 36 min 6 sec) 
Heartbeat CPU 0 instructions: 100000000 cycles: 1243318238 heartbeat IPC: 0.073581 cumulative IPC: 0.0726109 (Simulation time: 0 hr 40 min 19 sec) 
Heartbeat CPU 0 instructions: 110000000 cycles: 1385749524 heartbeat IPC: 0.0702093 cumulative IPC: 0.0723633 (Simulation time: 0 hr 44 min 48 sec) 
Finished CPU 0 instructions: 100000000 cycles: 1381915247 cumulative IPC: 0.0723633 (Simulation time: 0 hr 44 min 48 sec) 

ChampSim completed all CPUs

Region of Interest Statistics

CPU 0 cumulative IPC: 0.0723633 instructions: 100000000 cycles: 1381915247
cpu0_DTLB TOTAL     ACCESS:   20765619  HIT:    2975336  MISS:   17790283
cpu0_DTLB LOAD      ACCESS:   20269379  HIT:    2534987  MISS:   17734392
cpu0_DTLB RFO       ACCESS:     496240  HIT:     440349  MISS:      55891
cpu0_DTLB PREFETCH  ACCESS:          0  HIT:          0  MISS:          0
cpu0_DTLB WRITEBACK ACCESS:          0  HIT:          0  MISS:          0
cpu0_DTLB TRANSLATION ACCESS:          0  HIT:          0  MISS:          0
cpu0_DTLB PREFETCH  REQUESTED:          0  ISSUED:          0  USEFUL:          0  USELESS:          0
cpu0_DTLB AVERAGE MISS LATENCY: 10.475 cycles
cpu0_ITLB TOTAL     ACCESS:   11316118  HIT:   11316118  MISS:          0
cpu0_ITLB LOAD      ACCESS:   11316118  HIT:   11316118  MISS:          0
cpu0_ITLB RFO       ACCESS:          0  HIT:          0  MISS:          0
cpu0_ITLB PREFETCH  ACCESS:          0  HIT:          0  MISS:          0
cpu0_ITLB WRITEBACK ACCESS:          0  HIT:          0  MISS:          0
cpu0_ITLB TRANSLATION ACCESS:          0  HIT:          0  MISS:          0
cpu0_ITLB PREFETCH  REQUESTED:          0  ISSUED:          0  USEFUL:          0  USELESS:          0
cpu0_ITLB AVERAGE MISS LATENCY: nan cycles
cpu0_L1I TOTAL     ACCESS:          4  HIT:          4  MISS:          0
cpu0_L1I LOAD      ACCESS:          4  HIT:          4  MISS:          0
cpu0_L1I RFO       ACCESS:          0  HIT:          0  MISS:          0
cpu0_L1I PREFETCH  ACCESS:          0  HIT:          0  MISS:          0
cpu0_L1I WRITEBACK ACCESS:          0  HIT:          0  MISS:          0
cpu0_L1I TRANSLATION ACCESS:          0  HIT:          0  MISS:          0
cpu0_L1I PREFETCH  REQUESTED:          0  ISSUED:          0  USEFUL:          0  USELESS:          0
cpu0_L1I AVERAGE MISS LATENCY: nan cycles
cpu0_STLB TOTAL     ACCESS:   17790283  HIT:   17413128  MISS:     377155
cpu0_STLB LOAD      ACCESS:   17734392  HIT:   17359374  MISS:     375018
cpu0_STLB RFO       ACCESS:      55891  HIT:      53754  MISS:       2137
cpu0_STLB PREFETCH  ACCESS:          0  HIT:          0  MISS:          0
cpu0_STLB WRITEBACK ACCESS:          0  HIT:          0  MISS:          0
cpu0_STLB TRANSLATION ACCESS:          0  HIT:          0  MISS:          0
cpu0_STLB PREFETCH  REQUESTED:          0  ISSUED:          0  USEFUL:          0  USELESS:          0
cpu0_STLB AVERAGE MISS LATENCY: 69.5494 cycles
cpu0_L1D TOTAL     ACCESS:   21382634  HIT:    3439042  MISS:   17943592
cpu0_L1D LOAD      ACCESS:   20341812  HIT:    2557959  MISS:   17783853
cpu0_L1D RFO       ACCESS:     664700  HIT:     633045  MISS:      31655
cpu0_L1D PREFETCH  ACCESS:          0  HIT:          0  MISS:          0
cpu0_L1D WRITEBACK ACCESS:          0  HIT:          0  MISS:          0
cpu0_L1D TRANSLATION ACCESS:     376122  HIT:     248038  MISS:     128084
cpu0_L1D PREFETCH  REQUESTED:          0  ISSUED:          0  USEFUL:          0  USELESS:          0
cpu0_L1D AVERAGE MISS LATENCY: 227.712 cycles
cpu0_L2C TOTAL     ACCESS:   18302561  HIT:    5810187  MISS:   12492374
cpu0_L2C LOAD      ACCESS:   17783826  HIT:    5401317  MISS:   12382509
cpu0_L2C RFO       ACCESS:      31654  HIT:       9255  MISS:      22399
cpu0_L2C PREFETCH  ACCESS:          0  HIT:          0  MISS:          0
cpu0_L2C WRITEBACK ACCESS:     358997  HIT:     358989  MISS:          8
cpu0_L2C TRANSLATION ACCESS:     128084  HIT:      40626  MISS:      87458
cpu0_L2C PREFETCH  REQUESTED:          0  ISSUED:          0  USEFUL:          0  USELESS:          0
cpu0_L2C AVERAGE MISS LATENCY: 311.266 cycles
LLC TOTAL     ACCESS:   12783288  HIT:    5925597  MISS:    6857691
LLC LOAD      ACCESS:   12382509  HIT:    5644840  MISS:    6737669
LLC RFO       ACCESS:      22399  HIT:      13391  MISS:       9008
LLC PREFETCH  ACCESS:          0  HIT:          0  MISS:          0
LLC WRITEBACK ACCESS:     290922  HIT:     184363  MISS:     106559
LLC TRANSLATION ACCESS:      87458  HIT:      83003  MISS:       4455
LLC PREFETCH  REQUESTED:          0  ISSUED:          0  USEFUL:          0  USELESS:          0
LLC AVERAGE MISS LATENCY: 528.765 cycles
Insertion Distribution: 
	LOAD 125716 0 105556 7210588 
	RFO 6289 0 3711 2829 
	PREF 0 0 0 0 
	WRITEBACK 0 0 0 151001 
	 33 0 143 4686 
Total Prefetch Downgrades: 0

DRAM Statistics
 CHANNEL 0
 RQ ROW_BUFFER_HIT:       2591  ROW_BUFFER_MISS:    6748449
 DBUS AVG_CONGESTED_CYCLE:    3.96231
 WQ ROW_BUFFER_HIT:      10606  ROW_BUFFER_MISS:     145704  FULL:          0


CPU 0 Branch Prediction Accuracy: 91.6559% MPKI: 25.5287 Average ROB Occupancy at Mispredict: 24.4905
Branch type MPKI
BRANCH_DIRECT_JUMP: 2e-05
BRANCH_INDIRECT: 0
BRANCH_CONDITIONAL: 25.5287
BRANCH_DIRECT_CALL: 0
BRANCH_INDIRECT_CALL: 0
BRANCH_RETURN: 0

