
*** ChampSim Multicore Out-of-Order Simulator ***

Warmup Instructions: 10000000
Simulation Instructions: 100000000
Number of CPUs: 1
Off-chip DRAM Size: 4 GiB Channels: 1 Width: 64-bit Data Rate: 3200 MT/s

VirtualMemory physical capacity: 8588881920 num_ppages: 2096895
VirtualMemory page size: 4096 log2_page_size: 12

CPU 0 runs /datasets/cs240c-wi22-a00-public/data/Assignment2/h264ref_178B.trace.xz
CPU 0 Bimodal branch predictor
Basic BTB sets: 1024 ways: 8 indirect buffer size: 4096 RAS size: 64
Initialize Hawkeye state
Heartbeat CPU 0 instructions: 10000000 cycles: 3417071 heartbeat IPC: 2.92648 cumulative IPC: 2.92648 (Simulation time: 0 hr 1 min 50 sec) 

Warmup complete CPU 0 instructions: 10000002 cycles: 3417073 (Simulation time: 0 hr 1 min 50 sec) 

Heartbeat CPU 0 instructions: 20000003 cycles: 9538606 heartbeat IPC: 1.63358 cumulative IPC: 1.63358 (Simulation time: 0 hr 4 min 19 sec) 
Heartbeat CPU 0 instructions: 30000002 cycles: 15218049 heartbeat IPC: 1.76074 cumulative IPC: 1.69478 (Simulation time: 0 hr 6 min 40 sec) 
Heartbeat CPU 0 instructions: 40000002 cycles: 21184087 heartbeat IPC: 1.67615 cumulative IPC: 1.68852 (Simulation time: 0 hr 8 min 22 sec) 
Heartbeat CPU 0 instructions: 50000004 cycles: 28410896 heartbeat IPC: 1.38374 cumulative IPC: 1.6004 (Simulation time: 0 hr 10 min 26 sec) 
Heartbeat CPU 0 instructions: 60000004 cycles: 34543200 heartbeat IPC: 1.63071 cumulative IPC: 1.60637 (Simulation time: 0 hr 12 min 52 sec) 
Heartbeat CPU 0 instructions: 70000003 cycles: 40018399 heartbeat IPC: 1.82642 cumulative IPC: 1.63928 (Simulation time: 0 hr 14 min 55 sec) 
Heartbeat CPU 0 instructions: 80000001 cycles: 47727431 heartbeat IPC: 1.29718 cumulative IPC: 1.57977 (Simulation time: 0 hr 16 min 37 sec) 
Heartbeat CPU 0 instructions: 90000004 cycles: 54029658 heartbeat IPC: 1.58674 cumulative IPC: 1.58063 (Simulation time: 0 hr 19 min 3 sec) 
Heartbeat CPU 0 instructions: 100000000 cycles: 60085978 heartbeat IPC: 1.65117 cumulative IPC: 1.58817 (Simulation time: 0 hr 21 min 35 sec) 
Heartbeat CPU 0 instructions: 110000003 cycles: 66042562 heartbeat IPC: 1.67882 cumulative IPC: 1.59679 (Simulation time: 0 hr 23 min 23 sec) 
Finished CPU 0 instructions: 100000001 cycles: 62625489 cumulative IPC: 1.59679 (Simulation time: 0 hr 23 min 23 sec) 

ChampSim completed all CPUs

Region of Interest Statistics

CPU 0 cumulative IPC: 1.59679 instructions: 100000001 cycles: 62625489
cpu0_DTLB TOTAL     ACCESS:   21806685  HIT:   21679977  MISS:     126708
cpu0_DTLB LOAD      ACCESS:   18464387  HIT:   18370744  MISS:      93643
cpu0_DTLB RFO       ACCESS:    3342298  HIT:    3309233  MISS:      33065
cpu0_DTLB PREFETCH  ACCESS:          0  HIT:          0  MISS:          0
cpu0_DTLB WRITEBACK ACCESS:          0  HIT:          0  MISS:          0
cpu0_DTLB TRANSLATION ACCESS:          0  HIT:          0  MISS:          0
cpu0_DTLB PREFETCH  REQUESTED:          0  ISSUED:          0  USEFUL:          0  USELESS:          0
cpu0_DTLB AVERAGE MISS LATENCY: 9.89447 cycles
cpu0_ITLB TOTAL     ACCESS:    5537447  HIT:    5537104  MISS:        343
cpu0_ITLB LOAD      ACCESS:    5537447  HIT:    5537104  MISS:        343
cpu0_ITLB RFO       ACCESS:          0  HIT:          0  MISS:          0
cpu0_ITLB PREFETCH  ACCESS:          0  HIT:          0  MISS:          0
cpu0_ITLB WRITEBACK ACCESS:          0  HIT:          0  MISS:          0
cpu0_ITLB TRANSLATION ACCESS:          0  HIT:          0  MISS:          0
cpu0_ITLB PREFETCH  REQUESTED:          0  ISSUED:          0  USEFUL:          0  USELESS:          0
cpu0_ITLB AVERAGE MISS LATENCY: 9.86006 cycles
cpu0_L1I TOTAL     ACCESS:    5686623  HIT:    5672120  MISS:      14503
cpu0_L1I LOAD      ACCESS:    5686623  HIT:    5672120  MISS:      14503
cpu0_L1I RFO       ACCESS:          0  HIT:          0  MISS:          0
cpu0_L1I PREFETCH  ACCESS:          0  HIT:          0  MISS:          0
cpu0_L1I WRITEBACK ACCESS:          0  HIT:          0  MISS:          0
cpu0_L1I TRANSLATION ACCESS:          0  HIT:          0  MISS:          0
cpu0_L1I PREFETCH  REQUESTED:          0  ISSUED:          0  USEFUL:          0  USELESS:          0
cpu0_L1I AVERAGE MISS LATENCY: 43.7396 cycles
cpu0_STLB TOTAL     ACCESS:     127051  HIT:     126283  MISS:        768
cpu0_STLB LOAD      ACCESS:      93986  HIT:      93609  MISS:        377
cpu0_STLB RFO       ACCESS:      33065  HIT:      32674  MISS:        391
cpu0_STLB PREFETCH  ACCESS:          0  HIT:          0  MISS:          0
cpu0_STLB WRITEBACK ACCESS:          0  HIT:          0  MISS:          0
cpu0_STLB TRANSLATION ACCESS:          0  HIT:          0  MISS:          0
cpu0_STLB PREFETCH  REQUESTED:          0  ISSUED:          0  USEFUL:          0  USELESS:          0
cpu0_STLB AVERAGE MISS LATENCY: 146.547 cycles
cpu0_L1D TOTAL     ACCESS:   23020423  HIT:   22707425  MISS:     312998
cpu0_L1D LOAD      ACCESS:   17157244  HIT:   16935066  MISS:     222178
cpu0_L1D RFO       ACCESS:    5862499  HIT:    5771814  MISS:      90685
cpu0_L1D PREFETCH  ACCESS:          0  HIT:          0  MISS:          0
cpu0_L1D WRITEBACK ACCESS:          0  HIT:          0  MISS:          0
cpu0_L1D TRANSLATION ACCESS:        680  HIT:        545  MISS:        135
cpu0_L1D PREFETCH  REQUESTED:          0  ISSUED:          0  USEFUL:          0  USELESS:          0
cpu0_L1D AVERAGE MISS LATENCY: 70.685 cycles
cpu0_L2C TOTAL     ACCESS:     420056  HIT:     239121  MISS:     180935
cpu0_L2C LOAD      ACCESS:     236678  HIT:     140959  MISS:      95719
cpu0_L2C RFO       ACCESS:      90683  HIT:       5587  MISS:      85096
cpu0_L2C PREFETCH  ACCESS:          0  HIT:          0  MISS:          0
cpu0_L2C WRITEBACK ACCESS:      92560  HIT:      92454  MISS:        106
cpu0_L2C TRANSLATION ACCESS:        135  HIT:        121  MISS:         14
cpu0_L2C PREFETCH  REQUESTED:          0  ISSUED:          0  USEFUL:          0  USELESS:          0
cpu0_L2C AVERAGE MISS LATENCY: 105.802 cycles
LLC TOTAL     ACCESS:     270676  HIT:     194592  MISS:      76084
LLC LOAD      ACCESS:      95719  HIT:      65684  MISS:      30035
LLC RFO       ACCESS:      85096  HIT:      48039  MISS:      37057
LLC PREFETCH  ACCESS:          0  HIT:          0  MISS:          0
LLC WRITEBACK ACCESS:      89847  HIT:      80857  MISS:       8990
LLC TRANSLATION ACCESS:         14  HIT:         12  MISS:          2
LLC PREFETCH  REQUESTED:          0  ISSUED:          0  USEFUL:          0  USELESS:          0
LLC AVERAGE MISS LATENCY: 201.692 cycles
OPTgen accesses: 3217
OPTgen hits: 2155
OPTgen hit rate: 66.9879



DRAM Statistics
 CHANNEL 0
 RQ ROW_BUFFER_HIT:      19801  ROW_BUFFER_MISS:      47259
 DBUS AVG_CONGESTED_CYCLE:    3.91522
 WQ ROW_BUFFER_HIT:       4601  ROW_BUFFER_MISS:      29817  FULL:        423


CPU 0 Branch Prediction Accuracy: 94.363% MPKI: 4.48464 Average ROB Occupancy at Mispredict: 160.473
Branch type MPKI
BRANCH_DIRECT_JUMP: 0.00024
BRANCH_INDIRECT: 0.00166
BRANCH_CONDITIONAL: 4.48115
BRANCH_DIRECT_CALL: 6e-05
BRANCH_INDIRECT_CALL: 0.00061
BRANCH_RETURN: 0.00092

