
*** ChampSim Multicore Out-of-Order Simulator ***

Warmup Instructions: 10000000
Simulation Instructions: 100000000
Number of CPUs: 1
Off-chip DRAM Size: 4 GiB Channels: 1 Width: 64-bit Data Rate: 3200 MT/s

VirtualMemory physical capacity: 8588881920 num_ppages: 2096895
VirtualMemory page size: 4096 log2_page_size: 12

CPU 0 runs /datasets/cs240c-wi22-a00-public/data/Assignment2/gobmk_135B.trace.xz
CPU 0 Bimodal branch predictor
Basic BTB sets: 1024 ways: 8 indirect buffer size: 4096 RAS size: 64
Initialize Hawkeye state
Heartbeat CPU 0 instructions: 10000003 cycles: 2549267 heartbeat IPC: 3.9227 cumulative IPC: 3.9227 (Simulation time: 0 hr 1 min 14 sec) 

Warmup complete CPU 0 instructions: 10000003 cycles: 2549267 (Simulation time: 0 hr 1 min 14 sec) 

Heartbeat CPU 0 instructions: 20000000 cycles: 14300232 heartbeat IPC: 0.850994 cumulative IPC: 0.850994 (Simulation time: 0 hr 2 min 41 sec) 
Heartbeat CPU 0 instructions: 30000004 cycles: 25688522 heartbeat IPC: 0.878095 cumulative IPC: 0.864332 (Simulation time: 0 hr 4 min 8 sec) 
Heartbeat CPU 0 instructions: 40000003 cycles: 36552415 heartbeat IPC: 0.92048 cumulative IPC: 0.882271 (Simulation time: 0 hr 5 min 31 sec) 
Heartbeat CPU 0 instructions: 50000004 cycles: 47798158 heartbeat IPC: 0.889225 cumulative IPC: 0.884 (Simulation time: 0 hr 6 min 58 sec) 
Heartbeat CPU 0 instructions: 60000003 cycles: 59086680 heartbeat IPC: 0.885855 cumulative IPC: 0.88437 (Simulation time: 0 hr 8 min 24 sec) 
Heartbeat CPU 0 instructions: 70000000 cycles: 70125983 heartbeat IPC: 0.905854 cumulative IPC: 0.88788 (Simulation time: 0 hr 9 min 47 sec) 
Heartbeat CPU 0 instructions: 80000004 cycles: 81703232 heartbeat IPC: 0.863763 cumulative IPC: 0.884352 (Simulation time: 0 hr 11 min 12 sec) 
Heartbeat CPU 0 instructions: 90000004 cycles: 92913938 heartbeat IPC: 0.892004 cumulative IPC: 0.885302 (Simulation time: 0 hr 12 min 39 sec) 
Heartbeat CPU 0 instructions: 100000003 cycles: 104402796 heartbeat IPC: 0.870408 cumulative IPC: 0.883622 (Simulation time: 0 hr 14 min 5 sec) 
Heartbeat CPU 0 instructions: 110000002 cycles: 115898937 heartbeat IPC: 0.869857 cumulative IPC: 0.882226 (Simulation time: 0 hr 15 min 31 sec) 
Finished CPU 0 instructions: 100000004 cycles: 113349671 cumulative IPC: 0.882226 (Simulation time: 0 hr 15 min 31 sec) 

ChampSim completed all CPUs

Region of Interest Statistics

CPU 0 cumulative IPC: 0.882226 instructions: 100000004 cycles: 113349671
cpu0_DTLB TOTAL     ACCESS:   21502420  HIT:   21376236  MISS:     126184
cpu0_DTLB LOAD      ACCESS:   14899242  HIT:   14792068  MISS:     107174
cpu0_DTLB RFO       ACCESS:    6603178  HIT:    6584168  MISS:      19010
cpu0_DTLB PREFETCH  ACCESS:          0  HIT:          0  MISS:          0
cpu0_DTLB WRITEBACK ACCESS:          0  HIT:          0  MISS:          0
cpu0_DTLB TRANSLATION ACCESS:          0  HIT:          0  MISS:          0
cpu0_DTLB PREFETCH  REQUESTED:          0  ISSUED:          0  USEFUL:          0  USELESS:          0
cpu0_DTLB AVERAGE MISS LATENCY: 11.2632 cycles
cpu0_ITLB TOTAL     ACCESS:    9266885  HIT:    9264444  MISS:       2441
cpu0_ITLB LOAD      ACCESS:    9266885  HIT:    9264444  MISS:       2441
cpu0_ITLB RFO       ACCESS:          0  HIT:          0  MISS:          0
cpu0_ITLB PREFETCH  ACCESS:          0  HIT:          0  MISS:          0
cpu0_ITLB WRITEBACK ACCESS:          0  HIT:          0  MISS:          0
cpu0_ITLB TRANSLATION ACCESS:          0  HIT:          0  MISS:          0
cpu0_ITLB PREFETCH  REQUESTED:          0  ISSUED:          0  USEFUL:          0  USELESS:          0
cpu0_ITLB AVERAGE MISS LATENCY: 10.8054 cycles
cpu0_L1I TOTAL     ACCESS:    7388572  HIT:    7078796  MISS:     309776
cpu0_L1I LOAD      ACCESS:    7388572  HIT:    7078796  MISS:     309776
cpu0_L1I RFO       ACCESS:          0  HIT:          0  MISS:          0
cpu0_L1I PREFETCH  ACCESS:          0  HIT:          0  MISS:          0
cpu0_L1I WRITEBACK ACCESS:          0  HIT:          0  MISS:          0
cpu0_L1I TRANSLATION ACCESS:          0  HIT:          0  MISS:          0
cpu0_L1I PREFETCH  REQUESTED:          0  ISSUED:          0  USEFUL:          0  USELESS:          0
cpu0_L1I AVERAGE MISS LATENCY: 12.9178 cycles
cpu0_STLB TOTAL     ACCESS:     128625  HIT:     123297  MISS:       5328
cpu0_STLB LOAD      ACCESS:     109615  HIT:     104521  MISS:       5094
cpu0_STLB RFO       ACCESS:      19010  HIT:      18776  MISS:        234
cpu0_STLB PREFETCH  ACCESS:          0  HIT:          0  MISS:          0
cpu0_STLB WRITEBACK ACCESS:          0  HIT:          0  MISS:          0
cpu0_STLB TRANSLATION ACCESS:          0  HIT:          0  MISS:          0
cpu0_STLB PREFETCH  REQUESTED:          0  ISSUED:          0  USEFUL:          0  USELESS:          0
cpu0_STLB AVERAGE MISS LATENCY: 54.3626 cycles
cpu0_L1D TOTAL     ACCESS:   26588651  HIT:   26129463  MISS:     459188
cpu0_L1D LOAD      ACCESS:   14809241  HIT:   14499918  MISS:     309323
cpu0_L1D RFO       ACCESS:   11774088  HIT:   11624876  MISS:     149212
cpu0_L1D PREFETCH  ACCESS:          0  HIT:          0  MISS:          0
cpu0_L1D WRITEBACK ACCESS:          0  HIT:          0  MISS:          0
cpu0_L1D TRANSLATION ACCESS:       5322  HIT:       4669  MISS:        653
cpu0_L1D PREFETCH  REQUESTED:          0  ISSUED:          0  USEFUL:          0  USELESS:          0
cpu0_L1D AVERAGE MISS LATENCY: 27.4961 cycles
cpu0_L2C TOTAL     ACCESS:     984504  HIT:     813680  MISS:     170824
cpu0_L2C LOAD      ACCESS:     619097  HIT:     483329  MISS:     135768
cpu0_L2C RFO       ACCESS:     149201  HIT:     114231  MISS:      34970
cpu0_L2C PREFETCH  ACCESS:          0  HIT:          0  MISS:          0
cpu0_L2C WRITEBACK ACCESS:     215553  HIT:     215510  MISS:         43
cpu0_L2C TRANSLATION ACCESS:        653  HIT:        610  MISS:         43
cpu0_L2C PREFETCH  REQUESTED:          0  ISSUED:          0  USEFUL:          0  USELESS:          0
cpu0_L2C AVERAGE MISS LATENCY: 47.6239 cycles
LLC TOTAL     ACCESS:     247468  HIT:     219306  MISS:      28162
LLC LOAD      ACCESS:     135767  HIT:     113218  MISS:      22549
LLC RFO       ACCESS:      34970  HIT:      30590  MISS:       4380
LLC PREFETCH  ACCESS:          0  HIT:          0  MISS:          0
LLC WRITEBACK ACCESS:      76688  HIT:      75458  MISS:       1230
LLC TRANSLATION ACCESS:         43  HIT:         40  MISS:          3
LLC PREFETCH  REQUESTED:          0  ISSUED:          0  USEFUL:          0  USELESS:          0
LLC AVERAGE MISS LATENCY: 161.526 cycles
OPTgen accesses: 2905
OPTgen hits: 2271
OPTgen hit rate: 78.1756



DRAM Statistics
 CHANNEL 0
 RQ ROW_BUFFER_HIT:       4057  ROW_BUFFER_MISS:      22875
 DBUS AVG_CONGESTED_CYCLE:    3.82049
 WQ ROW_BUFFER_HIT:       1580  ROW_BUFFER_MISS:       5908  FULL:          0


CPU 0 Branch Prediction Accuracy: 87.3602% MPKI: 24.4764 Average ROB Occupancy at Mispredict: 16.8339
Branch type MPKI
BRANCH_DIRECT_JUMP: 0.00393
BRANCH_INDIRECT: 2e-05
BRANCH_CONDITIONAL: 24.4297
BRANCH_DIRECT_CALL: 0.00715
BRANCH_INDIRECT_CALL: 0.03275
BRANCH_RETURN: 0.00288

