
*** ChampSim Multicore Out-of-Order Simulator ***

Warmup Instructions: 10000000
Simulation Instructions: 100000000
Number of CPUs: 1
Off-chip DRAM Size: 4 GiB Channels: 1 Width: 64-bit Data Rate: 3200 MT/s

VirtualMemory physical capacity: 8588881920 num_ppages: 2096895
VirtualMemory page size: 4096 log2_page_size: 12

CPU 0 runs /datasets/cs240c-wi22-a00-public/data/Assignment2/hmmer_7B.trace.xz
CPU 0 Bimodal branch predictor
Basic BTB sets: 1024 ways: 8 indirect buffer size: 4096 RAS size: 64
Initialize Hawkeye state
Heartbeat CPU 0 instructions: 10000004 cycles: 3986065 heartbeat IPC: 2.50874 cumulative IPC: 2.50874 (Simulation time: 0 hr 2 min 15 sec) 

Warmup complete CPU 0 instructions: 10000004 cycles: 3986065 (Simulation time: 0 hr 2 min 15 sec) 

Heartbeat CPU 0 instructions: 20000004 cycles: 9287783 heartbeat IPC: 1.88618 cumulative IPC: 1.88618 (Simulation time: 0 hr 5 min 28 sec) 
Heartbeat CPU 0 instructions: 30000001 cycles: 14195450 heartbeat IPC: 2.03763 cumulative IPC: 1.95898 (Simulation time: 0 hr 8 min 32 sec) 
Heartbeat CPU 0 instructions: 40000001 cycles: 18712148 heartbeat IPC: 2.21401 cumulative IPC: 2.0372 (Simulation time: 0 hr 11 min 38 sec) 
Heartbeat CPU 0 instructions: 50000000 cycles: 24016368 heartbeat IPC: 1.88529 cumulative IPC: 1.99697 (Simulation time: 0 hr 14 min 49 sec) 
Heartbeat CPU 0 instructions: 60000000 cycles: 28351952 heartbeat IPC: 2.30649 cumulative IPC: 2.05205 (Simulation time: 0 hr 17 min 48 sec) 
Heartbeat CPU 0 instructions: 70000003 cycles: 32675170 heartbeat IPC: 2.31309 cumulative IPC: 2.09139 (Simulation time: 0 hr 20 min 49 sec) 
Heartbeat CPU 0 instructions: 80000001 cycles: 36984887 heartbeat IPC: 2.32034 cumulative IPC: 2.12129 (Simulation time: 0 hr 23 min 53 sec) 
Heartbeat CPU 0 instructions: 90000004 cycles: 41304494 heartbeat IPC: 2.31503 cumulative IPC: 2.14371 (Simulation time: 0 hr 26 min 52 sec) 
Heartbeat CPU 0 instructions: 100000002 cycles: 45623557 heartbeat IPC: 2.31532 cumulative IPC: 2.16151 (Simulation time: 0 hr 29 min 53 sec) 
Heartbeat CPU 0 instructions: 110000001 cycles: 49952335 heartbeat IPC: 2.31012 cumulative IPC: 2.17551 (Simulation time: 0 hr 32 min 54 sec) 
Finished CPU 0 instructions: 100000002 cycles: 45966271 cumulative IPC: 2.17551 (Simulation time: 0 hr 32 min 54 sec) 

ChampSim completed all CPUs

Region of Interest Statistics

CPU 0 cumulative IPC: 2.17551 instructions: 100000002 cycles: 45966271
cpu0_DTLB TOTAL     ACCESS:   40544010  HIT:   40529843  MISS:      14167
cpu0_DTLB LOAD      ACCESS:   32388725  HIT:   32380995  MISS:       7730
cpu0_DTLB RFO       ACCESS:    8155285  HIT:    8148848  MISS:       6437
cpu0_DTLB PREFETCH  ACCESS:          0  HIT:          0  MISS:          0
cpu0_DTLB WRITEBACK ACCESS:          0  HIT:          0  MISS:          0
cpu0_DTLB TRANSLATION ACCESS:          0  HIT:          0  MISS:          0
cpu0_DTLB PREFETCH  REQUESTED:          0  ISSUED:          0  USEFUL:          0  USELESS:          0
cpu0_DTLB AVERAGE MISS LATENCY: 14.889 cycles
cpu0_ITLB TOTAL     ACCESS:     798447  HIT:     798375  MISS:         72
cpu0_ITLB LOAD      ACCESS:     798447  HIT:     798375  MISS:         72
cpu0_ITLB RFO       ACCESS:          0  HIT:          0  MISS:          0
cpu0_ITLB PREFETCH  ACCESS:          0  HIT:          0  MISS:          0
cpu0_ITLB WRITEBACK ACCESS:          0  HIT:          0  MISS:          0
cpu0_ITLB TRANSLATION ACCESS:          0  HIT:          0  MISS:          0
cpu0_ITLB PREFETCH  REQUESTED:          0  ISSUED:          0  USEFUL:          0  USELESS:          0
cpu0_ITLB AVERAGE MISS LATENCY: 23.2639 cycles
cpu0_L1I TOTAL     ACCESS:      62180  HIT:      62075  MISS:        105
cpu0_L1I LOAD      ACCESS:      62180  HIT:      62075  MISS:        105
cpu0_L1I RFO       ACCESS:          0  HIT:          0  MISS:          0
cpu0_L1I PREFETCH  ACCESS:          0  HIT:          0  MISS:          0
cpu0_L1I WRITEBACK ACCESS:          0  HIT:          0  MISS:          0
cpu0_L1I TRANSLATION ACCESS:          0  HIT:          0  MISS:          0
cpu0_L1I PREFETCH  REQUESTED:          0  ISSUED:          0  USEFUL:          0  USELESS:          0
cpu0_L1I AVERAGE MISS LATENCY: 106.286 cycles
cpu0_STLB TOTAL     ACCESS:      14239  HIT:      13784  MISS:        455
cpu0_STLB LOAD      ACCESS:       7802  HIT:       7794  MISS:          8
cpu0_STLB RFO       ACCESS:       6437  HIT:       5990  MISS:        447
cpu0_STLB PREFETCH  ACCESS:          0  HIT:          0  MISS:          0
cpu0_STLB WRITEBACK ACCESS:          0  HIT:          0  MISS:          0
cpu0_STLB TRANSLATION ACCESS:          0  HIT:          0  MISS:          0
cpu0_STLB PREFETCH  REQUESTED:          0  ISSUED:          0  USEFUL:          0  USELESS:          0
cpu0_STLB AVERAGE MISS LATENCY: 185.418 cycles
cpu0_L1D TOTAL     ACCESS:   33483041  HIT:   33012961  MISS:     470080
cpu0_L1D LOAD      ACCESS:   28673375  HIT:   28512026  MISS:     161349
cpu0_L1D RFO       ACCESS:    4809212  HIT:    4500504  MISS:     308708
cpu0_L1D PREFETCH  ACCESS:          0  HIT:          0  MISS:          0
cpu0_L1D WRITEBACK ACCESS:          0  HIT:          0  MISS:          0
cpu0_L1D TRANSLATION ACCESS:        454  HIT:        431  MISS:         23
cpu0_L1D PREFETCH  REQUESTED:          0  ISSUED:          0  USEFUL:          0  USELESS:          0
cpu0_L1D AVERAGE MISS LATENCY: 250.094 cycles
cpu0_L2C TOTAL     ACCESS:     777189  HIT:     472265  MISS:     304924
cpu0_L2C LOAD      ACCESS:     161454  HIT:     149219  MISS:      12235
cpu0_L2C RFO       ACCESS:     308708  HIT:      16074  MISS:     292634
cpu0_L2C PREFETCH  ACCESS:          0  HIT:          0  MISS:          0
cpu0_L2C WRITEBACK ACCESS:     307004  HIT:     306957  MISS:         47
cpu0_L2C TRANSLATION ACCESS:         23  HIT:         15  MISS:          8
cpu0_L2C PREFETCH  REQUESTED:          0  ISSUED:          0  USEFUL:          0  USELESS:          0
cpu0_L2C AVERAGE MISS LATENCY: 368.613 cycles
LLC TOTAL     ACCESS:     596398  HIT:     451934  MISS:     144464
LLC LOAD      ACCESS:      12234  HIT:      10624  MISS:       1610
LLC RFO       ACCESS:     292633  HIT:     210090  MISS:      82543
LLC PREFETCH  ACCESS:          0  HIT:          0  MISS:          0
LLC WRITEBACK ACCESS:     291523  HIT:     231216  MISS:      60307
LLC TRANSLATION ACCESS:          8  HIT:          4  MISS:          4
LLC PREFETCH  REQUESTED:          0  ISSUED:          0  USEFUL:          0  USELESS:          0
LLC AVERAGE MISS LATENCY: 733.711 cycles
OPTgen accesses: 5335
OPTgen hits: 3762
OPTgen hit rate: 70.5155



DRAM Statistics
 CHANNEL 0
 RQ ROW_BUFFER_HIT:        974  ROW_BUFFER_MISS:      83182
 DBUS AVG_CONGESTED_CYCLE:    3.99424
 WQ ROW_BUFFER_HIT:       4181  ROW_BUFFER_MISS:      78472  FULL:       8476


CPU 0 Branch Prediction Accuracy: 98.9368% MPKI: 0.40856 Average ROB Occupancy at Mispredict: 252.374
Branch type MPKI
BRANCH_DIRECT_JUMP: 0.00016
BRANCH_INDIRECT: 0.00157
BRANCH_CONDITIONAL: 0.40659
BRANCH_DIRECT_CALL: 9e-05
BRANCH_INDIRECT_CALL: 3e-05
BRANCH_RETURN: 0.00012

