
*** ChampSim Multicore Out-of-Order Simulator ***

Warmup Instructions: 10000000
Simulation Instructions: 100000000
Number of CPUs: 1
Off-chip DRAM Size: 4 GiB Channels: 1 Width: 64-bit Data Rate: 3200 MT/s

VirtualMemory physical capacity: 8588881920 num_ppages: 2096895
VirtualMemory page size: 4096 log2_page_size: 12

CPU 0 runs /datasets/cs240c-wi22-a00-public/data/Assignment2/leslie3d_1116B.trace.xz
CPU 0 Bimodal branch predictor
Basic BTB sets: 1024 ways: 8 indirect buffer size: 4096 RAS size: 64
Initialize Hawkeye state
Heartbeat CPU 0 instructions: 10000000 cycles: 3692422 heartbeat IPC: 2.70825 cumulative IPC: 2.70825 (Simulation time: 0 hr 0 min 56 sec) 

Warmup complete CPU 0 instructions: 10000005 cycles: 3692423 (Simulation time: 0 hr 0 min 56 sec) 

Heartbeat CPU 0 instructions: 20000000 cycles: 12736093 heartbeat IPC: 1.10575 cumulative IPC: 1.10575 (Simulation time: 0 hr 2 min 31 sec) 
Heartbeat CPU 0 instructions: 30000004 cycles: 21818535 heartbeat IPC: 1.10103 cumulative IPC: 1.10338 (Simulation time: 0 hr 4 min 5 sec) 
Heartbeat CPU 0 instructions: 40000003 cycles: 33592140 heartbeat IPC: 0.849357 cumulative IPC: 1.00335 (Simulation time: 0 hr 5 min 53 sec) 
Heartbeat CPU 0 instructions: 50000000 cycles: 55194393 heartbeat IPC: 0.462915 cumulative IPC: 0.776669 (Simulation time: 0 hr 8 min 29 sec) 
Heartbeat CPU 0 instructions: 60000001 cycles: 109769327 heartbeat IPC: 0.183234 cumulative IPC: 0.471356 (Simulation time: 0 hr 13 min 54 sec) 
Heartbeat CPU 0 instructions: 70000000 cycles: 124112876 heartbeat IPC: 0.697177 cumulative IPC: 0.498254 (Simulation time: 0 hr 16 min 5 sec) 
Heartbeat CPU 0 instructions: 80000001 cycles: 137078687 heartbeat IPC: 0.771259 cumulative IPC: 0.524792 (Simulation time: 0 hr 18 min 11 sec) 
Heartbeat CPU 0 instructions: 90000004 cycles: 150463998 heartbeat IPC: 0.747088 cumulative IPC: 0.545065 (Simulation time: 0 hr 20 min 17 sec) 
Heartbeat CPU 0 instructions: 100000002 cycles: 163575297 heartbeat IPC: 0.762701 cumulative IPC: 0.562912 (Simulation time: 0 hr 22 min 21 sec) 
Heartbeat CPU 0 instructions: 110000001 cycles: 180883733 heartbeat IPC: 0.577753 cumulative IPC: 0.564362 (Simulation time: 0 hr 24 min 38 sec) 
Finished CPU 0 instructions: 100000001 cycles: 177191311 cumulative IPC: 0.564362 (Simulation time: 0 hr 24 min 38 sec) 

ChampSim completed all CPUs

Region of Interest Statistics

CPU 0 cumulative IPC: 0.564362 instructions: 100000001 cycles: 177191311
cpu0_DTLB TOTAL     ACCESS:   25746272  HIT:   25680559  MISS:      65713
cpu0_DTLB LOAD      ACCESS:   21125312  HIT:   21073649  MISS:      51663
cpu0_DTLB RFO       ACCESS:    4620960  HIT:    4606910  MISS:      14050
cpu0_DTLB PREFETCH  ACCESS:          0  HIT:          0  MISS:          0
cpu0_DTLB WRITEBACK ACCESS:          0  HIT:          0  MISS:          0
cpu0_DTLB TRANSLATION ACCESS:          0  HIT:          0  MISS:          0
cpu0_DTLB PREFETCH  REQUESTED:          0  ISSUED:          0  USEFUL:          0  USELESS:          0
cpu0_DTLB AVERAGE MISS LATENCY: 87.0795 cycles
cpu0_ITLB TOTAL     ACCESS:    2879994  HIT:    2879976  MISS:         18
cpu0_ITLB LOAD      ACCESS:    2879994  HIT:    2879976  MISS:         18
cpu0_ITLB RFO       ACCESS:          0  HIT:          0  MISS:          0
cpu0_ITLB PREFETCH  ACCESS:          0  HIT:          0  MISS:          0
cpu0_ITLB WRITEBACK ACCESS:          0  HIT:          0  MISS:          0
cpu0_ITLB TRANSLATION ACCESS:          0  HIT:          0  MISS:          0
cpu0_ITLB PREFETCH  REQUESTED:          0  ISSUED:          0  USEFUL:          0  USELESS:          0
cpu0_ITLB AVERAGE MISS LATENCY: 361.556 cycles
cpu0_L1I TOTAL     ACCESS:    1779566  HIT:    1779094  MISS:        472
cpu0_L1I LOAD      ACCESS:    1779566  HIT:    1779094  MISS:        472
cpu0_L1I RFO       ACCESS:          0  HIT:          0  MISS:          0
cpu0_L1I PREFETCH  ACCESS:          0  HIT:          0  MISS:          0
cpu0_L1I WRITEBACK ACCESS:          0  HIT:          0  MISS:          0
cpu0_L1I TRANSLATION ACCESS:          0  HIT:          0  MISS:          0
cpu0_L1I PREFETCH  REQUESTED:          0  ISSUED:          0  USEFUL:          0  USELESS:          0
cpu0_L1I AVERAGE MISS LATENCY: 375.667 cycles
cpu0_STLB TOTAL     ACCESS:      65731  HIT:      34107  MISS:      31624
cpu0_STLB LOAD      ACCESS:      51681  HIT:      28215  MISS:      23466
cpu0_STLB RFO       ACCESS:      14050  HIT:       5892  MISS:       8158
cpu0_STLB PREFETCH  ACCESS:          0  HIT:          0  MISS:          0
cpu0_STLB WRITEBACK ACCESS:          0  HIT:          0  MISS:          0
cpu0_STLB TRANSLATION ACCESS:          0  HIT:          0  MISS:          0
cpu0_STLB PREFETCH  REQUESTED:          0  ISSUED:          0  USEFUL:          0  USELESS:          0
cpu0_STLB AVERAGE MISS LATENCY: 162.432 cycles
cpu0_L1D TOTAL     ACCESS:   24550834  HIT:   21140663  MISS:    3410171
cpu0_L1D LOAD      ACCESS:   16398782  HIT:   13781657  MISS:    2617125
cpu0_L1D RFO       ACCESS:    8122741  HIT:    7333335  MISS:     789406
cpu0_L1D PREFETCH  ACCESS:          0  HIT:          0  MISS:          0
cpu0_L1D WRITEBACK ACCESS:          0  HIT:          0  MISS:          0
cpu0_L1D TRANSLATION ACCESS:      29311  HIT:      25671  MISS:       3640
cpu0_L1D PREFETCH  REQUESTED:          0  ISSUED:          0  USEFUL:          0  USELESS:          0
cpu0_L1D AVERAGE MISS LATENCY: 482.968 cycles
cpu0_L2C TOTAL     ACCESS:    4455103  HIT:    1718530  MISS:    2736573
cpu0_L2C LOAD      ACCESS:    2617549  HIT:     507730  MISS:    2109819
cpu0_L2C RFO       ACCESS:     789318  HIT:     162837  MISS:     626481
cpu0_L2C PREFETCH  ACCESS:          0  HIT:          0  MISS:          0
cpu0_L2C WRITEBACK ACCESS:    1044596  HIT:    1044421  MISS:        175
cpu0_L2C TRANSLATION ACCESS:       3640  HIT:       3542  MISS:         98
cpu0_L2C PREFETCH  REQUESTED:          0  ISSUED:          0  USEFUL:          0  USELESS:          0
cpu0_L2C AVERAGE MISS LATENCY: 588.174 cycles
LLC TOTAL     ACCESS:    3497117  HIT:     807689  MISS:    2689428
LLC LOAD      ACCESS:    2109819  HIT:     485487  MISS:    1624332
LLC RFO       ACCESS:     626481  HIT:     110355  MISS:     516126
LLC PREFETCH  ACCESS:          0  HIT:          0  MISS:          0
LLC WRITEBACK ACCESS:     760719  HIT:     211818  MISS:     548901
LLC TRANSLATION ACCESS:         98  HIT:         29  MISS:         69
LLC PREFETCH  REQUESTED:          0  ISSUED:          0  USEFUL:          0  USELESS:          0
LLC AVERAGE MISS LATENCY: 577.05 cycles
OPTgen accesses: 45257
OPTgen hits: 12931
OPTgen hit rate: 28.5724



DRAM Statistics
 CHANNEL 0
 RQ ROW_BUFFER_HIT:     218029  ROW_BUFFER_MISS:    1922077
 DBUS AVG_CONGESTED_CYCLE:    3.95923
 WQ ROW_BUFFER_HIT:      61631  ROW_BUFFER_MISS:     602741  FULL:      36636


CPU 0 Branch Prediction Accuracy: 96.8713% MPKI: 1.55303 Average ROB Occupancy at Mispredict: 297.848
Branch type MPKI
BRANCH_DIRECT_JUMP: 0.00018
BRANCH_INDIRECT: 0
BRANCH_CONDITIONAL: 1.55065
BRANCH_DIRECT_CALL: 0.00113
BRANCH_INDIRECT_CALL: 0
BRANCH_RETURN: 0.00107

