
*** ChampSim Multicore Out-of-Order Simulator ***

Warmup Instructions: 10000000
Simulation Instructions: 100000000
Number of CPUs: 1
Off-chip DRAM Size: 4 GiB Channels: 1 Width: 64-bit Data Rate: 3200 MT/s

VirtualMemory physical capacity: 8588881920 num_ppages: 2096895
VirtualMemory page size: 4096 log2_page_size: 12

CPU 0 runs /datasets/cs240c-wi22-a00-public/data/Assignment2/leslie3d_1186B.trace.xz
CPU 0 Bimodal branch predictor
Basic BTB sets: 1024 ways: 8 indirect buffer size: 4096 RAS size: 64
Initialize Hawkeye state
Heartbeat CPU 0 instructions: 10000000 cycles: 4308777 heartbeat IPC: 2.32084 cumulative IPC: 2.32084 (Simulation time: 0 hr 1 min 12 sec) 

Warmup complete CPU 0 instructions: 10000005 cycles: 4308778 (Simulation time: 0 hr 1 min 12 sec) 

Heartbeat CPU 0 instructions: 20000000 cycles: 17971807 heartbeat IPC: 0.731902 cumulative IPC: 0.731902 (Simulation time: 0 hr 3 min 16 sec) 
Heartbeat CPU 0 instructions: 30000000 cycles: 31430505 heartbeat IPC: 0.743014 cumulative IPC: 0.737416 (Simulation time: 0 hr 5 min 21 sec) 
Heartbeat CPU 0 instructions: 40000004 cycles: 44801577 heartbeat IPC: 0.747883 cumulative IPC: 0.740872 (Simulation time: 0 hr 7 min 26 sec) 
Heartbeat CPU 0 instructions: 50000002 cycles: 60813827 heartbeat IPC: 0.624522 cumulative IPC: 0.707901 (Simulation time: 0 hr 9 min 37 sec) 
Heartbeat CPU 0 instructions: 60000000 cycles: 96672618 heartbeat IPC: 0.278872 cumulative IPC: 0.541337 (Simulation time: 0 hr 13 min 31 sec) 
Heartbeat CPU 0 instructions: 70000000 cycles: 125589685 heartbeat IPC: 0.345817 cumulative IPC: 0.494719 (Simulation time: 0 hr 17 min 1 sec) 
Heartbeat CPU 0 instructions: 80000003 cycles: 135847733 heartbeat IPC: 0.974845 cumulative IPC: 0.532162 (Simulation time: 0 hr 18 min 57 sec) 
Heartbeat CPU 0 instructions: 90000002 cycles: 146019758 heartbeat IPC: 0.983088 cumulative IPC: 0.564529 (Simulation time: 0 hr 20 min 51 sec) 
Heartbeat CPU 0 instructions: 100000000 cycles: 156254083 heartbeat IPC: 0.977104 cumulative IPC: 0.592318 (Simulation time: 0 hr 22 min 46 sec) 
Heartbeat CPU 0 instructions: 110000000 cycles: 166563175 heartbeat IPC: 0.970018 cumulative IPC: 0.616316 (Simulation time: 0 hr 24 min 43 sec) 
Finished CPU 0 instructions: 100000000 cycles: 162254398 cumulative IPC: 0.616316 (Simulation time: 0 hr 24 min 43 sec) 

ChampSim completed all CPUs

Region of Interest Statistics

CPU 0 cumulative IPC: 0.616316 instructions: 100000000 cycles: 162254398
cpu0_DTLB TOTAL     ACCESS:   27965462  HIT:   27867753  MISS:      97709
cpu0_DTLB LOAD      ACCESS:   23291381  HIT:   23205422  MISS:      85959
cpu0_DTLB RFO       ACCESS:    4674081  HIT:    4662331  MISS:      11750
cpu0_DTLB PREFETCH  ACCESS:          0  HIT:          0  MISS:          0
cpu0_DTLB WRITEBACK ACCESS:          0  HIT:          0  MISS:          0
cpu0_DTLB TRANSLATION ACCESS:          0  HIT:          0  MISS:          0
cpu0_DTLB PREFETCH  REQUESTED:          0  ISSUED:          0  USEFUL:          0  USELESS:          0
cpu0_DTLB AVERAGE MISS LATENCY: 52.6091 cycles
cpu0_ITLB TOTAL     ACCESS:    2894411  HIT:    2894398  MISS:         13
cpu0_ITLB LOAD      ACCESS:    2894411  HIT:    2894398  MISS:         13
cpu0_ITLB RFO       ACCESS:          0  HIT:          0  MISS:          0
cpu0_ITLB PREFETCH  ACCESS:          0  HIT:          0  MISS:          0
cpu0_ITLB WRITEBACK ACCESS:          0  HIT:          0  MISS:          0
cpu0_ITLB TRANSLATION ACCESS:          0  HIT:          0  MISS:          0
cpu0_ITLB PREFETCH  REQUESTED:          0  ISSUED:          0  USEFUL:          0  USELESS:          0
cpu0_ITLB AVERAGE MISS LATENCY: 300.462 cycles
cpu0_L1I TOTAL     ACCESS:    1735762  HIT:    1735382  MISS:        380
cpu0_L1I LOAD      ACCESS:    1735762  HIT:    1735382  MISS:        380
cpu0_L1I RFO       ACCESS:          0  HIT:          0  MISS:          0
cpu0_L1I PREFETCH  ACCESS:          0  HIT:          0  MISS:          0
cpu0_L1I WRITEBACK ACCESS:          0  HIT:          0  MISS:          0
cpu0_L1I TRANSLATION ACCESS:          0  HIT:          0  MISS:          0
cpu0_L1I PREFETCH  REQUESTED:          0  ISSUED:          0  USEFUL:          0  USELESS:          0
cpu0_L1I AVERAGE MISS LATENCY: 326.563 cycles
cpu0_STLB TOTAL     ACCESS:      97722  HIT:      70320  MISS:      27402
cpu0_STLB LOAD      ACCESS:      85972  HIT:      63245  MISS:      22727
cpu0_STLB RFO       ACCESS:      11750  HIT:       7075  MISS:       4675
cpu0_STLB PREFETCH  ACCESS:          0  HIT:          0  MISS:          0
cpu0_STLB WRITEBACK ACCESS:          0  HIT:          0  MISS:          0
cpu0_STLB TRANSLATION ACCESS:          0  HIT:          0  MISS:          0
cpu0_STLB PREFETCH  REQUESTED:          0  ISSUED:          0  USEFUL:          0  USELESS:          0
cpu0_STLB AVERAGE MISS LATENCY: 155.583 cycles
cpu0_L1D TOTAL     ACCESS:   27007177  HIT:   23104423  MISS:    3902754
cpu0_L1D LOAD      ACCESS:   17782844  HIT:   14599025  MISS:    3183819
cpu0_L1D RFO       ACCESS:    9199775  HIT:    8484282  MISS:     715493
cpu0_L1D PREFETCH  ACCESS:          0  HIT:          0  MISS:          0
cpu0_L1D WRITEBACK ACCESS:          0  HIT:          0  MISS:          0
cpu0_L1D TRANSLATION ACCESS:      24558  HIT:      21116  MISS:       3442
cpu0_L1D PREFETCH  REQUESTED:          0  ISSUED:          0  USEFUL:          0  USELESS:          0
cpu0_L1D AVERAGE MISS LATENCY: 356.33 cycles
cpu0_L2C TOTAL     ACCESS:    4956195  HIT:    2398764  MISS:    2557431
cpu0_L2C LOAD      ACCESS:    3184150  HIT:    1036788  MISS:    2147362
cpu0_L2C RFO       ACCESS:     715157  HIT:     307504  MISS:     407653
cpu0_L2C PREFETCH  ACCESS:          0  HIT:          0  MISS:          0
cpu0_L2C WRITEBACK ACCESS:    1053446  HIT:    1051241  MISS:       2205
cpu0_L2C TRANSLATION ACCESS:       3442  HIT:       3231  MISS:        211
cpu0_L2C PREFETCH  REQUESTED:          0  ISSUED:          0  USEFUL:          0  USELESS:          0
cpu0_L2C AVERAGE MISS LATENCY: 526.98 cycles
LLC TOTAL     ACCESS:    3217549  HIT:     862533  MISS:    2355016
LLC LOAD      ACCESS:    2147353  HIT:     554101  MISS:    1593252
LLC RFO       ACCESS:     407643  HIT:     109965  MISS:     297678
LLC PREFETCH  ACCESS:          0  HIT:          0  MISS:          0
LLC WRITEBACK ACCESS:     662342  HIT:     198390  MISS:     463952
LLC TRANSLATION ACCESS:        211  HIT:         77  MISS:        134
LLC PREFETCH  REQUESTED:          0  ISSUED:          0  USEFUL:          0  USELESS:          0
LLC AVERAGE MISS LATENCY: 549.44 cycles
OPTgen accesses: 43419
OPTgen hits: 14158
OPTgen hit rate: 32.6078



DRAM Statistics
 CHANNEL 0
 RQ ROW_BUFFER_HIT:     207994  ROW_BUFFER_MISS:    1682767
 DBUS AVG_CONGESTED_CYCLE:    3.95085
 WQ ROW_BUFFER_HIT:      40686  ROW_BUFFER_MISS:     502365  FULL:      21699


CPU 0 Branch Prediction Accuracy: 96.8384% MPKI: 1.47634 Average ROB Occupancy at Mispredict: 310.861
Branch type MPKI
BRANCH_DIRECT_JUMP: 0.00016
BRANCH_INDIRECT: 0
BRANCH_CONDITIONAL: 1.47504
BRANCH_DIRECT_CALL: 0.00057
BRANCH_INDIRECT_CALL: 0
BRANCH_RETURN: 0.00057

