
*** ChampSim Multicore Out-of-Order Simulator ***

Warmup Instructions: 10000000
Simulation Instructions: 100000000
Number of CPUs: 1
Off-chip DRAM Size: 4 GiB Channels: 1 Width: 64-bit Data Rate: 3200 MT/s

VirtualMemory physical capacity: 8588881920 num_ppages: 2096895
VirtualMemory page size: 4096 log2_page_size: 12

CPU 0 runs /datasets/cs240c-wi22-a00-public/data/Assignment2/sphinx3_1339B.trace.xz
CPU 0 Bimodal branch predictor
Basic BTB sets: 1024 ways: 8 indirect buffer size: 4096 RAS size: 64
Initialize Hawkeye state
Heartbeat CPU 0 instructions: 10000000 cycles: 2584401 heartbeat IPC: 3.86937 cumulative IPC: 3.86937 (Simulation time: 0 hr 0 min 32 sec) 

Warmup complete CPU 0 instructions: 10000004 cycles: 2584402 (Simulation time: 0 hr 0 min 32 sec) 

Heartbeat CPU 0 instructions: 20000003 cycles: 10461321 heartbeat IPC: 1.26953 cumulative IPC: 1.26953 (Simulation time: 0 hr 1 min 25 sec) 
Heartbeat CPU 0 instructions: 30000001 cycles: 18412230 heartbeat IPC: 1.25772 cumulative IPC: 1.2636 (Simulation time: 0 hr 2 min 18 sec) 
Heartbeat CPU 0 instructions: 40000002 cycles: 26932549 heartbeat IPC: 1.17367 cumulative IPC: 1.23213 (Simulation time: 0 hr 3 min 14 sec) 
Heartbeat CPU 0 instructions: 50000004 cycles: 35182589 heartbeat IPC: 1.21212 cumulative IPC: 1.22706 (Simulation time: 0 hr 4 min 9 sec) 
Heartbeat CPU 0 instructions: 60000003 cycles: 43481587 heartbeat IPC: 1.20496 cumulative IPC: 1.22258 (Simulation time: 0 hr 5 min 4 sec) 
Heartbeat CPU 0 instructions: 70000002 cycles: 51950380 heartbeat IPC: 1.18081 cumulative IPC: 1.21541 (Simulation time: 0 hr 6 min 0 sec) 
Heartbeat CPU 0 instructions: 80000002 cycles: 60368006 heartbeat IPC: 1.18798 cumulative IPC: 1.21142 (Simulation time: 0 hr 6 min 57 sec) 
Heartbeat CPU 0 instructions: 90000001 cycles: 68838372 heartbeat IPC: 1.18059 cumulative IPC: 1.20747 (Simulation time: 0 hr 7 min 53 sec) 
Heartbeat CPU 0 instructions: 100000002 cycles: 77664526 heartbeat IPC: 1.133 cumulative IPC: 1.19872 (Simulation time: 0 hr 8 min 51 sec) 
Heartbeat CPU 0 instructions: 110000000 cycles: 87108939 heartbeat IPC: 1.05883 cumulative IPC: 1.18309 (Simulation time: 0 hr 9 min 49 sec) 
Finished CPU 0 instructions: 100000001 cycles: 84524538 cumulative IPC: 1.18309 (Simulation time: 0 hr 9 min 49 sec) 

ChampSim completed all CPUs

Region of Interest Statistics

CPU 0 cumulative IPC: 1.18309 instructions: 100000001 cycles: 84524538
cpu0_DTLB TOTAL     ACCESS:   16227038  HIT:   16118218  MISS:     108820
cpu0_DTLB LOAD      ACCESS:   15056910  HIT:   14953955  MISS:     102955
cpu0_DTLB RFO       ACCESS:    1170128  HIT:    1164263  MISS:       5865
cpu0_DTLB PREFETCH  ACCESS:          0  HIT:          0  MISS:          0
cpu0_DTLB WRITEBACK ACCESS:          0  HIT:          0  MISS:          0
cpu0_DTLB TRANSLATION ACCESS:          0  HIT:          0  MISS:          0
cpu0_DTLB PREFETCH  REQUESTED:          0  ISSUED:          0  USEFUL:          0  USELESS:          0
cpu0_DTLB AVERAGE MISS LATENCY: 13.5566 cycles
cpu0_ITLB TOTAL     ACCESS:    9174213  HIT:    9174171  MISS:         42
cpu0_ITLB LOAD      ACCESS:    9174213  HIT:    9174171  MISS:         42
cpu0_ITLB RFO       ACCESS:          0  HIT:          0  MISS:          0
cpu0_ITLB PREFETCH  ACCESS:          0  HIT:          0  MISS:          0
cpu0_ITLB WRITEBACK ACCESS:          0  HIT:          0  MISS:          0
cpu0_ITLB TRANSLATION ACCESS:          0  HIT:          0  MISS:          0
cpu0_ITLB PREFETCH  REQUESTED:          0  ISSUED:          0  USEFUL:          0  USELESS:          0
cpu0_ITLB AVERAGE MISS LATENCY: 122.881 cycles
cpu0_L1I TOTAL     ACCESS:     300502  HIT:     298931  MISS:       1571
cpu0_L1I LOAD      ACCESS:     300502  HIT:     298931  MISS:       1571
cpu0_L1I RFO       ACCESS:          0  HIT:          0  MISS:          0
cpu0_L1I PREFETCH  ACCESS:          0  HIT:          0  MISS:          0
cpu0_L1I WRITEBACK ACCESS:          0  HIT:          0  MISS:          0
cpu0_L1I TRANSLATION ACCESS:          0  HIT:          0  MISS:          0
cpu0_L1I PREFETCH  REQUESTED:          0  ISSUED:          0  USEFUL:          0  USELESS:          0
cpu0_L1I AVERAGE MISS LATENCY: 114.579 cycles
cpu0_STLB TOTAL     ACCESS:     108862  HIT:      69741  MISS:      39121
cpu0_STLB LOAD      ACCESS:     102997  HIT:      64956  MISS:      38041
cpu0_STLB RFO       ACCESS:       5865  HIT:       4785  MISS:       1080
cpu0_STLB PREFETCH  ACCESS:          0  HIT:          0  MISS:          0
cpu0_STLB WRITEBACK ACCESS:          0  HIT:          0  MISS:          0
cpu0_STLB TRANSLATION ACCESS:          0  HIT:          0  MISS:          0
cpu0_STLB PREFETCH  REQUESTED:          0  ISSUED:          0  USEFUL:          0  USELESS:          0
cpu0_STLB AVERAGE MISS LATENCY: 12.6542 cycles
cpu0_L1D TOTAL     ACCESS:   12068597  HIT:   10569405  MISS:    1499192
cpu0_L1D LOAD      ACCESS:   10276508  HIT:    8898425  MISS:    1378083
cpu0_L1D RFO       ACCESS:    1755095  HIT:    1634494  MISS:     120601
cpu0_L1D PREFETCH  ACCESS:          0  HIT:          0  MISS:          0
cpu0_L1D WRITEBACK ACCESS:          0  HIT:          0  MISS:          0
cpu0_L1D TRANSLATION ACCESS:      36994  HIT:      36486  MISS:        508
cpu0_L1D PREFETCH  REQUESTED:          0  ISSUED:          0  USEFUL:          0  USELESS:          0
cpu0_L1D AVERAGE MISS LATENCY: 103.664 cycles
cpu0_L2C TOTAL     ACCESS:    1642877  HIT:     358340  MISS:    1284537
cpu0_L2C LOAD      ACCESS:    1379640  HIT:     204293  MISS:    1175347
cpu0_L2C RFO       ACCESS:     120600  HIT:      11966  MISS:     108634
cpu0_L2C PREFETCH  ACCESS:          0  HIT:          0  MISS:          0
cpu0_L2C WRITEBACK ACCESS:     142129  HIT:     141861  MISS:        268
cpu0_L2C TRANSLATION ACCESS:        508  HIT:        220  MISS:        288
cpu0_L2C PREFETCH  REQUESTED:          0  ISSUED:          0  USEFUL:          0  USELESS:          0
cpu0_L2C AVERAGE MISS LATENCY: 108.236 cycles
LLC TOTAL     ACCESS:    1413642  HIT:     753116  MISS:     660526
LLC LOAD      ACCESS:    1175342  HIT:     628350  MISS:     546992
LLC RFO       ACCESS:     108634  HIT:      48690  MISS:      59944
LLC PREFETCH  ACCESS:          0  HIT:          0  MISS:          0
LLC WRITEBACK ACCESS:     129378  HIT:      75958  MISS:      53420
LLC TRANSLATION ACCESS:        288  HIT:        118  MISS:        170
LLC PREFETCH  REQUESTED:          0  ISSUED:          0  USEFUL:          0  USELESS:          0
LLC AVERAGE MISS LATENCY: 169.655 cycles
OPTgen accesses: 22037
OPTgen hits: 14195
OPTgen hit rate: 64.4144



DRAM Statistics
 CHANNEL 0
 RQ ROW_BUFFER_HIT:     135639  ROW_BUFFER_MISS:     471315
 DBUS AVG_CONGESTED_CYCLE:    3.88005
 WQ ROW_BUFFER_HIT:      34980  ROW_BUFFER_MISS:      45239  FULL:          0


CPU 0 Branch Prediction Accuracy: 92.5867% MPKI: 6.65069 Average ROB Occupancy at Mispredict: 177.676
Branch type MPKI
BRANCH_DIRECT_JUMP: 0.00112
BRANCH_INDIRECT: 0
BRANCH_CONDITIONAL: 6.64811
BRANCH_DIRECT_CALL: 0.00071
BRANCH_INDIRECT_CALL: 3e-05
BRANCH_RETURN: 0.00072

