
*** ChampSim Multicore Out-of-Order Simulator ***

Warmup Instructions: 10000000
Simulation Instructions: 100000000
Number of CPUs: 1
Off-chip DRAM Size: 4 GiB Channels: 1 Width: 64-bit Data Rate: 3200 MT/s

VirtualMemory physical capacity: 8588881920 num_ppages: 2096895
VirtualMemory page size: 4096 log2_page_size: 12

CPU 0 runs /datasets/cs240c-wi22-a00-public/data/Assignment2/xalancbmk_99B.trace.xz
CPU 0 Bimodal branch predictor
Basic BTB sets: 1024 ways: 8 indirect buffer size: 4096 RAS size: 64
Initialize Hawkeye state
Heartbeat CPU 0 instructions: 10000001 cycles: 3058700 heartbeat IPC: 3.26936 cumulative IPC: 3.26936 (Simulation time: 0 hr 0 min 46 sec) 

Warmup complete CPU 0 instructions: 10000001 cycles: 3058700 (Simulation time: 0 hr 0 min 46 sec) 

Heartbeat CPU 0 instructions: 20000003 cycles: 37833668 heartbeat IPC: 0.287563 cumulative IPC: 0.287563 (Simulation time: 0 hr 2 min 0 sec) 
Heartbeat CPU 0 instructions: 30000000 cycles: 77214486 heartbeat IPC: 0.253931 cumulative IPC: 0.269702 (Simulation time: 0 hr 3 min 23 sec) 
Heartbeat CPU 0 instructions: 40000000 cycles: 113322988 heartbeat IPC: 0.276943 cumulative IPC: 0.272074 (Simulation time: 0 hr 4 min 40 sec) 
Heartbeat CPU 0 instructions: 50000001 cycles: 149790513 heartbeat IPC: 0.274217 cumulative IPC: 0.272606 (Simulation time: 0 hr 5 min 59 sec) 
Heartbeat CPU 0 instructions: 60000002 cycles: 187197464 heartbeat IPC: 0.26733 cumulative IPC: 0.271534 (Simulation time: 0 hr 7 min 19 sec) 
Heartbeat CPU 0 instructions: 70000002 cycles: 223075158 heartbeat IPC: 0.278725 cumulative IPC: 0.272707 (Simulation time: 0 hr 8 min 38 sec) 
Heartbeat CPU 0 instructions: 80000001 cycles: 259321137 heartbeat IPC: 0.275893 cumulative IPC: 0.273157 (Simulation time: 0 hr 9 min 55 sec) 
Heartbeat CPU 0 instructions: 90000000 cycles: 298068613 heartbeat IPC: 0.258081 cumulative IPC: 0.271177 (Simulation time: 0 hr 11 min 17 sec) 
Heartbeat CPU 0 instructions: 100000000 cycles: 332676798 heartbeat IPC: 0.288949 cumulative IPC: 0.273043 (Simulation time: 0 hr 12 min 32 sec) 
Heartbeat CPU 0 instructions: 110000001 cycles: 367010972 heartbeat IPC: 0.291255 cumulative IPC: 0.274761 (Simulation time: 0 hr 13 min 46 sec) 
Finished CPU 0 instructions: 100000000 cycles: 363952272 cumulative IPC: 0.274761 (Simulation time: 0 hr 13 min 46 sec) 

ChampSim completed all CPUs

Region of Interest Statistics

CPU 0 cumulative IPC: 0.274761 instructions: 100000000 cycles: 363952272
cpu0_DTLB TOTAL     ACCESS:   22801824  HIT:   22241168  MISS:     560656
cpu0_DTLB LOAD      ACCESS:   21421964  HIT:   20870882  MISS:     551082
cpu0_DTLB RFO       ACCESS:    1379860  HIT:    1370286  MISS:       9574
cpu0_DTLB PREFETCH  ACCESS:          0  HIT:          0  MISS:          0
cpu0_DTLB WRITEBACK ACCESS:          0  HIT:          0  MISS:          0
cpu0_DTLB TRANSLATION ACCESS:          0  HIT:          0  MISS:          0
cpu0_DTLB PREFETCH  REQUESTED:          0  ISSUED:          0  USEFUL:          0  USELESS:          0
cpu0_DTLB AVERAGE MISS LATENCY: 37.6108 cycles
cpu0_ITLB TOTAL     ACCESS:   13331732  HIT:   13304374  MISS:      27358
cpu0_ITLB LOAD      ACCESS:   13331732  HIT:   13304374  MISS:      27358
cpu0_ITLB RFO       ACCESS:          0  HIT:          0  MISS:          0
cpu0_ITLB PREFETCH  ACCESS:          0  HIT:          0  MISS:          0
cpu0_ITLB WRITEBACK ACCESS:          0  HIT:          0  MISS:          0
cpu0_ITLB TRANSLATION ACCESS:          0  HIT:          0  MISS:          0
cpu0_ITLB PREFETCH  REQUESTED:          0  ISSUED:          0  USEFUL:          0  USELESS:          0
cpu0_ITLB AVERAGE MISS LATENCY: 10.9163 cycles
cpu0_L1I TOTAL     ACCESS:     670552  HIT:     563509  MISS:     107043
cpu0_L1I LOAD      ACCESS:     670552  HIT:     563509  MISS:     107043
cpu0_L1I RFO       ACCESS:          0  HIT:          0  MISS:          0
cpu0_L1I PREFETCH  ACCESS:          0  HIT:          0  MISS:          0
cpu0_L1I WRITEBACK ACCESS:          0  HIT:          0  MISS:          0
cpu0_L1I TRANSLATION ACCESS:          0  HIT:          0  MISS:          0
cpu0_L1I PREFETCH  REQUESTED:          0  ISSUED:          0  USEFUL:          0  USELESS:          0
cpu0_L1I AVERAGE MISS LATENCY: 37.8886 cycles
cpu0_STLB TOTAL     ACCESS:     588014  HIT:     173001  MISS:     415013
cpu0_STLB LOAD      ACCESS:     578440  HIT:     164983  MISS:     413457
cpu0_STLB RFO       ACCESS:       9574  HIT:       8018  MISS:       1556
cpu0_STLB PREFETCH  ACCESS:          0  HIT:          0  MISS:          0
cpu0_STLB WRITEBACK ACCESS:          0  HIT:          0  MISS:          0
cpu0_STLB TRANSLATION ACCESS:          0  HIT:          0  MISS:          0
cpu0_STLB PREFETCH  REQUESTED:          0  ISSUED:          0  USEFUL:          0  USELESS:          0
cpu0_STLB AVERAGE MISS LATENCY: 38.7022 cycles
cpu0_L1D TOTAL     ACCESS:   17697893  HIT:   14552744  MISS:    3145149
cpu0_L1D LOAD      ACCESS:   15457196  HIT:   12329953  MISS:    3127243
cpu0_L1D RFO       ACCESS:    1870404  HIT:    1858450  MISS:      11954
cpu0_L1D PREFETCH  ACCESS:          0  HIT:          0  MISS:          0
cpu0_L1D WRITEBACK ACCESS:          0  HIT:          0  MISS:          0
cpu0_L1D TRANSLATION ACCESS:     370293  HIT:     364341  MISS:       5952
cpu0_L1D PREFETCH  REQUESTED:          0  ISSUED:          0  USEFUL:          0  USELESS:          0
cpu0_L1D AVERAGE MISS LATENCY: 152.11 cycles
cpu0_L2C TOTAL     ACCESS:    3279979  HIT:     136155  MISS:    3143824
cpu0_L2C LOAD      ACCESS:    3234277  HIT:     101454  MISS:    3132823
cpu0_L2C RFO       ACCESS:      11950  HIT:       2663  MISS:       9287
cpu0_L2C PREFETCH  ACCESS:          0  HIT:          0  MISS:          0
cpu0_L2C WRITEBACK ACCESS:      27800  HIT:      27413  MISS:        387
cpu0_L2C TRANSLATION ACCESS:       5952  HIT:       4625  MISS:       1327
cpu0_L2C PREFETCH  REQUESTED:          0  ISSUED:          0  USEFUL:          0  USELESS:          0
cpu0_L2C AVERAGE MISS LATENCY: 141.93 cycles
LLC TOTAL     ACCESS:    3163836  HIT:     739521  MISS:    2424315
LLC LOAD      ACCESS:    3132823  HIT:     715755  MISS:    2417068
LLC RFO       ACCESS:       9286  HIT:       4115  MISS:       5171
LLC PREFETCH  ACCESS:          0  HIT:          0  MISS:          0
LLC WRITEBACK ACCESS:      20400  HIT:      19108  MISS:       1292
LLC TRANSLATION ACCESS:       1327  HIT:        543  MISS:        784
LLC PREFETCH  REQUESTED:          0  ISSUED:          0  USEFUL:          0  USELESS:          0
LLC AVERAGE MISS LATENCY: 156.823 cycles
OPTgen accesses: 53652
OPTgen hits: 18043
OPTgen hit rate: 33.6297



DRAM Statistics
 CHANNEL 0
 RQ ROW_BUFFER_HIT:     610332  ROW_BUFFER_MISS:    1812686
 DBUS AVG_CONGESTED_CYCLE:    3.91696
 WQ ROW_BUFFER_HIT:       3531  ROW_BUFFER_MISS:       4464  FULL:          0


CPU 0 Branch Prediction Accuracy: 90.7444% MPKI: 27.9345 Average ROB Occupancy at Mispredict: 19.3374
Branch type MPKI
BRANCH_DIRECT_JUMP: 0.00034
BRANCH_INDIRECT: 0.0087
BRANCH_CONDITIONAL: 27.8577
BRANCH_DIRECT_CALL: 0.00024
BRANCH_INDIRECT_CALL: 0.02508
BRANCH_RETURN: 0.04245

