
*** ChampSim Multicore Out-of-Order Simulator ***

Warmup Instructions: 10000000
Simulation Instructions: 100000000
Number of CPUs: 1
Off-chip DRAM Size: 4 GiB Channels: 1 Width: 64-bit Data Rate: 3200 MT/s

VirtualMemory physical capacity: 8588881920 num_ppages: 2096895
VirtualMemory page size: 4096 log2_page_size: 12

CPU 0 runs /Users/brandon/Documents/CoursesWi22/CSE240C/Homework2/traces/cactusADM_1495B.trace.xz
CPU 0 Bimodal branch predictor
Basic BTB sets: 1024 ways: 8 indirect buffer size: 4096 RAS size: 64
Initialize SRRIP state
Heartbeat CPU 0 instructions: 10000001 cycles: 3702137 heartbeat IPC: 2.70114 cumulative IPC: 2.70114 (Simulation time: 0 hr 1 min 26 sec) 

Warmup complete CPU 0 instructions: 10000001 cycles: 3702137 (Simulation time: 0 hr 1 min 26 sec) 

Heartbeat CPU 0 instructions: 20000001 cycles: 11025062 heartbeat IPC: 1.36557 cumulative IPC: 1.36557 (Simulation time: 0 hr 3 min 36 sec) 
Heartbeat CPU 0 instructions: 30000003 cycles: 19960359 heartbeat IPC: 1.11916 cumulative IPC: 1.23015 (Simulation time: 0 hr 5 min 53 sec) 
Heartbeat CPU 0 instructions: 40000001 cycles: 29355096 heartbeat IPC: 1.06443 cumulative IPC: 1.16946 (Simulation time: 0 hr 8 min 14 sec) 
Heartbeat CPU 0 instructions: 50000000 cycles: 38165785 heartbeat IPC: 1.13498 cumulative IPC: 1.16064 (Simulation time: 0 hr 10 min 32 sec) 
Heartbeat CPU 0 instructions: 60000000 cycles: 45269950 heartbeat IPC: 1.40762 cumulative IPC: 1.20285 (Simulation time: 0 hr 12 min 27 sec) 
Heartbeat CPU 0 instructions: 70000000 cycles: 53281231 heartbeat IPC: 1.24824 cumulative IPC: 1.21019 (Simulation time: 0 hr 14 min 21 sec) 
Heartbeat CPU 0 instructions: 80000001 cycles: 61782301 heartbeat IPC: 1.17632 cumulative IPC: 1.20523 (Simulation time: 0 hr 16 min 15 sec) 
Heartbeat CPU 0 instructions: 90000002 cycles: 70630587 heartbeat IPC: 1.13016 cumulative IPC: 1.19531 (Simulation time: 0 hr 18 min 16 sec) 
Heartbeat CPU 0 instructions: 100000002 cycles: 79351057 heartbeat IPC: 1.14673 cumulative IPC: 1.18971 (Simulation time: 0 hr 20 min 31 sec) 
Heartbeat CPU 0 instructions: 110000004 cycles: 85222783 heartbeat IPC: 1.70308 cumulative IPC: 1.22668 (Simulation time: 0 hr 22 min 25 sec) 
Finished CPU 0 instructions: 100000003 cycles: 81520646 cumulative IPC: 1.22668 (Simulation time: 0 hr 22 min 25 sec) 

ChampSim completed all CPUs

Region of Interest Statistics

CPU 0 cumulative IPC: 1.22668 instructions: 100000003 cycles: 81520646
cpu0_DTLB TOTAL     ACCESS:   21499254  HIT:   19726567  MISS:    1772687
cpu0_DTLB LOAD      ACCESS:   17686362  HIT:   16477031  MISS:    1209331
cpu0_DTLB RFO       ACCESS:    3812892  HIT:    3249536  MISS:     563356
cpu0_DTLB PREFETCH  ACCESS:          0  HIT:          0  MISS:          0
cpu0_DTLB WRITEBACK ACCESS:          0  HIT:          0  MISS:          0
cpu0_DTLB TRANSLATION ACCESS:          0  HIT:          0  MISS:          0
cpu0_DTLB PREFETCH  REQUESTED:          0  ISSUED:          0  USEFUL:          0  USELESS:          0
cpu0_DTLB AVERAGE MISS LATENCY: 16.7249 cycles
cpu0_ITLB TOTAL     ACCESS:    1617792  HIT:    1617792  MISS:          0
cpu0_ITLB LOAD      ACCESS:    1617792  HIT:    1617792  MISS:          0
cpu0_ITLB RFO       ACCESS:          0  HIT:          0  MISS:          0
cpu0_ITLB PREFETCH  ACCESS:          0  HIT:          0  MISS:          0
cpu0_ITLB WRITEBACK ACCESS:          0  HIT:          0  MISS:          0
cpu0_ITLB TRANSLATION ACCESS:          0  HIT:          0  MISS:          0
cpu0_ITLB PREFETCH  REQUESTED:          0  ISSUED:          0  USEFUL:          0  USELESS:          0
cpu0_ITLB AVERAGE MISS LATENCY: nan cycles
cpu0_L1I TOTAL     ACCESS:    8434477  HIT:    8434477  MISS:          0
cpu0_L1I LOAD      ACCESS:    8434477  HIT:    8434477  MISS:          0
cpu0_L1I RFO       ACCESS:          0  HIT:          0  MISS:          0
cpu0_L1I PREFETCH  ACCESS:          0  HIT:          0  MISS:          0
cpu0_L1I WRITEBACK ACCESS:          0  HIT:          0  MISS:          0
cpu0_L1I TRANSLATION ACCESS:          0  HIT:          0  MISS:          0
cpu0_L1I PREFETCH  REQUESTED:          0  ISSUED:          0  USEFUL:          0  USELESS:          0
cpu0_L1I AVERAGE MISS LATENCY: nan cycles
cpu0_STLB TOTAL     ACCESS:    1772687  HIT:     905549  MISS:     867138
cpu0_STLB LOAD      ACCESS:    1209331  HIT:     648112  MISS:     561219
cpu0_STLB RFO       ACCESS:     563356  HIT:     257437  MISS:     305919
cpu0_STLB PREFETCH  ACCESS:          0  HIT:          0  MISS:          0
cpu0_STLB WRITEBACK ACCESS:          0  HIT:          0  MISS:          0
cpu0_STLB TRANSLATION ACCESS:          0  HIT:          0  MISS:          0
cpu0_STLB PREFETCH  REQUESTED:          0  ISSUED:          0  USEFUL:          0  USELESS:          0
cpu0_STLB AVERAGE MISS LATENCY: 15.6696 cycles
cpu0_L1D TOTAL     ACCESS:   37513993  HIT:   36225825  MISS:    1288168
cpu0_L1D LOAD      ACCESS:   25724691  HIT:   24688678  MISS:    1036013
cpu0_L1D RFO       ACCESS:   10922836  HIT:   10677604  MISS:     245232
cpu0_L1D PREFETCH  ACCESS:          0  HIT:          0  MISS:          0
cpu0_L1D WRITEBACK ACCESS:          0  HIT:          0  MISS:          0
cpu0_L1D TRANSLATION ACCESS:     866466  HIT:     859543  MISS:       6923
cpu0_L1D PREFETCH  REQUESTED:          0  ISSUED:          0  USEFUL:          0  USELESS:          0
cpu0_L1D AVERAGE MISS LATENCY: 285.724 cycles
cpu0_L2C TOTAL     ACCESS:    1536951  HIT:     676862  MISS:     860089
cpu0_L2C LOAD      ACCESS:    1036013  HIT:     421595  MISS:     614418
cpu0_L2C RFO       ACCESS:     245232  HIT:          0  MISS:     245232
cpu0_L2C PREFETCH  ACCESS:          0  HIT:          0  MISS:          0
cpu0_L2C WRITEBACK ACCESS:     248783  HIT:     248594  MISS:        189
cpu0_L2C TRANSLATION ACCESS:       6923  HIT:       6673  MISS:        250
cpu0_L2C PREFETCH  REQUESTED:          0  ISSUED:          0  USEFUL:          0  USELESS:          0
cpu0_L2C AVERAGE MISS LATENCY: 411.438 cycles
LLC TOTAL     ACCESS:    1105256  HIT:     323257  MISS:     781999
LLC LOAD      ACCESS:     614418  HIT:     171262  MISS:     443156
LLC RFO       ACCESS:     245232  HIT:      61127  MISS:     184105
LLC PREFETCH  ACCESS:          0  HIT:          0  MISS:          0
LLC WRITEBACK ACCESS:     245356  HIT:      90827  MISS:     154529
LLC TRANSLATION ACCESS:        250  HIT:         41  MISS:        209
LLC PREFETCH  REQUESTED:          0  ISSUED:          0  USEFUL:          0  USELESS:          0
LLC AVERAGE MISS LATENCY: 429.43 cycles
Insertion Distribution: 
	LOAD 41063 0 67392 402085 
	RFO 25952 0 21660 167190 
	PREF 0 0 0 0 
	WRITEBACK 0 0 0 163649 
	 0 0 53 216 
Total Prefetch Downgrades: 0

DRAM Statistics
 CHANNEL 0
 RQ ROW_BUFFER_HIT:       7196  ROW_BUFFER_MISS:     620265
 DBUS AVG_CONGESTED_CYCLE:    3.97958
 WQ ROW_BUFFER_HIT:      16094  ROW_BUFFER_MISS:     193141  FULL:        155


CPU 0 Branch Prediction Accuracy: 97.8411% MPKI: 0.04284 Average ROB Occupancy at Mispredict: 285.637
Branch type MPKI
BRANCH_DIRECT_JUMP: 0
BRANCH_INDIRECT: 0
BRANCH_CONDITIONAL: 0.04284
BRANCH_DIRECT_CALL: 0
BRANCH_INDIRECT_CALL: 0
BRANCH_RETURN: 0

