
*** ChampSim Multicore Out-of-Order Simulator ***

Warmup Instructions: 10000000
Simulation Instructions: 100000000
Number of CPUs: 1
Off-chip DRAM Size: 4 GiB Channels: 1 Width: 64-bit Data Rate: 3200 MT/s

VirtualMemory physical capacity: 8588881920 num_ppages: 2096895
VirtualMemory page size: 4096 log2_page_size: 12

CPU 0 runs /Users/brandon/Documents/CoursesWi22/CSE240C/Homework2/traces/GemsFDTD_109B.trace.xz
CPU 0 Bimodal branch predictor
Basic BTB sets: 1024 ways: 8 indirect buffer size: 4096 RAS size: 64
Initialize SRRIP state
Heartbeat CPU 0 instructions: 10000004 cycles: 4294006 heartbeat IPC: 2.32883 cumulative IPC: 2.32883 (Simulation time: 0 hr 1 min 27 sec) 

Warmup complete CPU 0 instructions: 10000004 cycles: 4294006 (Simulation time: 0 hr 1 min 27 sec) 

Heartbeat CPU 0 instructions: 20000000 cycles: 34646642 heartbeat IPC: 0.329461 cumulative IPC: 0.329461 (Simulation time: 0 hr 6 min 20 sec) 
Heartbeat CPU 0 instructions: 30000004 cycles: 56033689 heartbeat IPC: 0.467573 cumulative IPC: 0.38655 (Simulation time: 0 hr 9 min 36 sec) 
Heartbeat CPU 0 instructions: 40000004 cycles: 62013526 heartbeat IPC: 1.67229 cumulative IPC: 0.519755 (Simulation time: 0 hr 10 min 47 sec) 
Heartbeat CPU 0 instructions: 50000003 cycles: 82849605 heartbeat IPC: 0.479937 cumulative IPC: 0.509193 (Simulation time: 0 hr 14 min 25 sec) 
Heartbeat CPU 0 instructions: 60000002 cycles: 124100125 heartbeat IPC: 0.242421 cumulative IPC: 0.417341 (Simulation time: 0 hr 21 min 6 sec) 
Heartbeat CPU 0 instructions: 70000004 cycles: 163735812 heartbeat IPC: 0.252298 cumulative IPC: 0.376313 (Simulation time: 0 hr 27 min 53 sec) 
Heartbeat CPU 0 instructions: 80000004 cycles: 203527057 heartbeat IPC: 0.251312 cumulative IPC: 0.351347 (Simulation time: 0 hr 34 min 55 sec) 
Heartbeat CPU 0 instructions: 90000000 cycles: 243172755 heartbeat IPC: 0.252234 cumulative IPC: 0.334898 (Simulation time: 0 hr 41 min 8 sec) 
Heartbeat CPU 0 instructions: 100000000 cycles: 282795532 heartbeat IPC: 0.25238 cumulative IPC: 0.323158 (Simulation time: 0 hr 47 min 55 sec) 
Heartbeat CPU 0 instructions: 110000004 cycles: 322659234 heartbeat IPC: 0.250855 cumulative IPC: 0.314105 (Simulation time: 0 hr 54 min 14 sec) 
Finished CPU 0 instructions: 100000000 cycles: 318365228 cumulative IPC: 0.314105 (Simulation time: 0 hr 54 min 14 sec) 

ChampSim completed all CPUs

Region of Interest Statistics

CPU 0 cumulative IPC: 0.314105 instructions: 100000000 cycles: 318365228
cpu0_DTLB TOTAL     ACCESS:   26459764  HIT:   26260341  MISS:     199423
cpu0_DTLB LOAD      ACCESS:   21028387  HIT:   20830966  MISS:     197421
cpu0_DTLB RFO       ACCESS:    5431377  HIT:    5429375  MISS:       2002
cpu0_DTLB PREFETCH  ACCESS:          0  HIT:          0  MISS:          0
cpu0_DTLB WRITEBACK ACCESS:          0  HIT:          0  MISS:          0
cpu0_DTLB TRANSLATION ACCESS:          0  HIT:          0  MISS:          0
cpu0_DTLB PREFETCH  REQUESTED:          0  ISSUED:          0  USEFUL:          0  USELESS:          0
cpu0_DTLB AVERAGE MISS LATENCY: 440.567 cycles
cpu0_ITLB TOTAL     ACCESS:    2042205  HIT:    2042187  MISS:         18
cpu0_ITLB LOAD      ACCESS:    2042205  HIT:    2042187  MISS:         18
cpu0_ITLB RFO       ACCESS:          0  HIT:          0  MISS:          0
cpu0_ITLB PREFETCH  ACCESS:          0  HIT:          0  MISS:          0
cpu0_ITLB WRITEBACK ACCESS:          0  HIT:          0  MISS:          0
cpu0_ITLB TRANSLATION ACCESS:          0  HIT:          0  MISS:          0
cpu0_ITLB PREFETCH  REQUESTED:          0  ISSUED:          0  USEFUL:          0  USELESS:          0
cpu0_ITLB AVERAGE MISS LATENCY: 253.889 cycles
cpu0_L1I TOTAL     ACCESS:    1722980  HIT:    1722550  MISS:        430
cpu0_L1I LOAD      ACCESS:    1722980  HIT:    1722550  MISS:        430
cpu0_L1I RFO       ACCESS:          0  HIT:          0  MISS:          0
cpu0_L1I PREFETCH  ACCESS:          0  HIT:          0  MISS:          0
cpu0_L1I WRITEBACK ACCESS:          0  HIT:          0  MISS:          0
cpu0_L1I TRANSLATION ACCESS:          0  HIT:          0  MISS:          0
cpu0_L1I PREFETCH  REQUESTED:          0  ISSUED:          0  USEFUL:          0  USELESS:          0
cpu0_L1I AVERAGE MISS LATENCY: 336.63 cycles
cpu0_STLB TOTAL     ACCESS:     199441  HIT:      33980  MISS:     165461
cpu0_STLB LOAD      ACCESS:     197439  HIT:      32672  MISS:     164767
cpu0_STLB RFO       ACCESS:       2002  HIT:       1308  MISS:        694
cpu0_STLB PREFETCH  ACCESS:          0  HIT:          0  MISS:          0
cpu0_STLB WRITEBACK ACCESS:          0  HIT:          0  MISS:          0
cpu0_STLB TRANSLATION ACCESS:          0  HIT:          0  MISS:          0
cpu0_STLB PREFETCH  REQUESTED:          0  ISSUED:          0  USEFUL:          0  USELESS:          0
cpu0_STLB AVERAGE MISS LATENCY: 520.061 cycles
cpu0_L1D TOTAL     ACCESS:   22816529  HIT:   19586509  MISS:    3230020
cpu0_L1D LOAD      ACCESS:   13719943  HIT:   10620220  MISS:    3099723
cpu0_L1D RFO       ACCESS:    9006796  HIT:    8879183  MISS:     127613
cpu0_L1D PREFETCH  ACCESS:          0  HIT:          0  MISS:          0
cpu0_L1D WRITEBACK ACCESS:          0  HIT:          0  MISS:          0
cpu0_L1D TRANSLATION ACCESS:      89790  HIT:      87106  MISS:       2684
cpu0_L1D PREFETCH  REQUESTED:          0  ISSUED:          0  USEFUL:          0  USELESS:          0
cpu0_L1D AVERAGE MISS LATENCY: 732.177 cycles
cpu0_L2C TOTAL     ACCESS:    4595281  HIT:    1426044  MISS:    3169237
cpu0_L2C LOAD      ACCESS:    3100153  HIT:      45486  MISS:    3054667
cpu0_L2C RFO       ACCESS:     127613  HIT:      13324  MISS:     114289
cpu0_L2C PREFETCH  ACCESS:          0  HIT:          0  MISS:          0
cpu0_L2C WRITEBACK ACCESS:    1364831  HIT:    1364751  MISS:         80
cpu0_L2C TRANSLATION ACCESS:       2684  HIT:       2483  MISS:        201
cpu0_L2C PREFETCH  REQUESTED:          0  ISSUED:          0  USEFUL:          0  USELESS:          0
cpu0_L2C AVERAGE MISS LATENCY: 735.038 cycles
LLC TOTAL     ACCESS:    4521903  HIT:     914117  MISS:    3607786
LLC LOAD      ACCESS:    3054664  HIT:     638643  MISS:    2416021
LLC RFO       ACCESS:     114289  HIT:      98874  MISS:      15415
LLC PREFETCH  ACCESS:          0  HIT:          0  MISS:          0
LLC WRITEBACK ACCESS:    1352749  HIT:     176495  MISS:    1176254
LLC TRANSLATION ACCESS:        201  HIT:        105  MISS:         96
LLC PREFETCH  REQUESTED:          0  ISSUED:          0  USEFUL:          0  USELESS:          0
LLC AVERAGE MISS LATENCY: 627.236 cycles
Insertion Distribution: 
	LOAD 596963 0 223055 1820101 
	RFO 3143 0 3145 9129 
	PREF 0 0 0 0 
	WRITEBACK 0 0 0 1287573 
	 17 0 57 40 
Total Prefetch Downgrades: 0

DRAM Statistics
 CHANNEL 0
 RQ ROW_BUFFER_HIT:      50727  ROW_BUFFER_MISS:    2380765
 DBUS AVG_CONGESTED_CYCLE:    3.99535
 WQ ROW_BUFFER_HIT:      25655  ROW_BUFFER_MISS:    1230293  FULL:      37839


CPU 0 Branch Prediction Accuracy: 98.929% MPKI: 0.55515 Average ROB Occupancy at Mispredict: 265.614
Branch type MPKI
BRANCH_DIRECT_JUMP: 0.00045
BRANCH_INDIRECT: 1e-05
BRANCH_CONDITIONAL: 0.5534
BRANCH_DIRECT_CALL: 0.00065
BRANCH_INDIRECT_CALL: 0
BRANCH_RETURN: 0.00064

