
*** ChampSim Multicore Out-of-Order Simulator ***

Warmup Instructions: 10000000
Simulation Instructions: 100000000
Number of CPUs: 1
Off-chip DRAM Size: 4 GiB Channels: 1 Width: 64-bit Data Rate: 3200 MT/s

VirtualMemory physical capacity: 8588881920 num_ppages: 2096895
VirtualMemory page size: 4096 log2_page_size: 12

CPU 0 runs /Users/brandon/Documents/CoursesWi22/CSE240C/Homework2/traces/h264ref_351B.trace.xz
CPU 0 Bimodal branch predictor
Basic BTB sets: 1024 ways: 8 indirect buffer size: 4096 RAS size: 64
Initialize SRRIP state
Heartbeat CPU 0 instructions: 10000003 cycles: 3499510 heartbeat IPC: 2.85754 cumulative IPC: 2.85754 (Simulation time: 0 hr 1 min 7 sec) 

Warmup complete CPU 0 instructions: 10000003 cycles: 3499510 (Simulation time: 0 hr 1 min 7 sec) 

Heartbeat CPU 0 instructions: 20000000 cycles: 12234601 heartbeat IPC: 1.14481 cumulative IPC: 1.14481 (Simulation time: 0 hr 1 min 54 sec) 
Heartbeat CPU 0 instructions: 30000000 cycles: 18585862 heartbeat IPC: 1.57449 cumulative IPC: 1.3257 (Simulation time: 0 hr 3 min 17 sec) 
Heartbeat CPU 0 instructions: 40000001 cycles: 24732091 heartbeat IPC: 1.62701 cumulative IPC: 1.41292 (Simulation time: 0 hr 4 min 44 sec) 
Heartbeat CPU 0 instructions: 50000000 cycles: 31322224 heartbeat IPC: 1.51742 cumulative IPC: 1.43767 (Simulation time: 0 hr 5 min 40 sec) 
Heartbeat CPU 0 instructions: 60000004 cycles: 39088282 heartbeat IPC: 1.28766 cumulative IPC: 1.40494 (Simulation time: 0 hr 6 min 34 sec) 
Heartbeat CPU 0 instructions: 70000001 cycles: 45153577 heartbeat IPC: 1.64872 cumulative IPC: 1.44044 (Simulation time: 0 hr 7 min 59 sec) 
Heartbeat CPU 0 instructions: 80000004 cycles: 51094453 heartbeat IPC: 1.68325 cumulative IPC: 1.47074 (Simulation time: 0 hr 9 min 20 sec) 
Heartbeat CPU 0 instructions: 90000004 cycles: 57810953 heartbeat IPC: 1.48887 cumulative IPC: 1.47299 (Simulation time: 0 hr 10 min 9 sec) 
Heartbeat CPU 0 instructions: 100000001 cycles: 65277184 heartbeat IPC: 1.33936 cumulative IPC: 1.45684 (Simulation time: 0 hr 11 min 11 sec) 
Heartbeat CPU 0 instructions: 110000001 cycles: 71347802 heartbeat IPC: 1.64728 cumulative IPC: 1.47388 (Simulation time: 0 hr 12 min 36 sec) 
Finished CPU 0 instructions: 100000003 cycles: 67848293 cumulative IPC: 1.47388 (Simulation time: 0 hr 12 min 36 sec) 

ChampSim completed all CPUs

Region of Interest Statistics

CPU 0 cumulative IPC: 1.47388 instructions: 100000003 cycles: 67848293
cpu0_DTLB TOTAL     ACCESS:   22001039  HIT:   21965158  MISS:      35881
cpu0_DTLB LOAD      ACCESS:   18624440  HIT:   18591665  MISS:      32775
cpu0_DTLB RFO       ACCESS:    3376599  HIT:    3373493  MISS:       3106
cpu0_DTLB PREFETCH  ACCESS:          0  HIT:          0  MISS:          0
cpu0_DTLB WRITEBACK ACCESS:          0  HIT:          0  MISS:          0
cpu0_DTLB TRANSLATION ACCESS:          0  HIT:          0  MISS:          0
cpu0_DTLB PREFETCH  REQUESTED:          0  ISSUED:          0  USEFUL:          0  USELESS:          0
cpu0_DTLB AVERAGE MISS LATENCY: 12.2072 cycles
cpu0_ITLB TOTAL     ACCESS:    6596286  HIT:    6595826  MISS:        460
cpu0_ITLB LOAD      ACCESS:    6596286  HIT:    6595826  MISS:        460
cpu0_ITLB RFO       ACCESS:          0  HIT:          0  MISS:          0
cpu0_ITLB PREFETCH  ACCESS:          0  HIT:          0  MISS:          0
cpu0_ITLB WRITEBACK ACCESS:          0  HIT:          0  MISS:          0
cpu0_ITLB TRANSLATION ACCESS:          0  HIT:          0  MISS:          0
cpu0_ITLB PREFETCH  REQUESTED:          0  ISSUED:          0  USEFUL:          0  USELESS:          0
cpu0_ITLB AVERAGE MISS LATENCY: 26.2217 cycles
cpu0_L1I TOTAL     ACCESS:    4924833  HIT:    4899420  MISS:      25413
cpu0_L1I LOAD      ACCESS:    4924833  HIT:    4899420  MISS:      25413
cpu0_L1I RFO       ACCESS:          0  HIT:          0  MISS:          0
cpu0_L1I PREFETCH  ACCESS:          0  HIT:          0  MISS:          0
cpu0_L1I WRITEBACK ACCESS:          0  HIT:          0  MISS:          0
cpu0_L1I TRANSLATION ACCESS:          0  HIT:          0  MISS:          0
cpu0_L1I PREFETCH  REQUESTED:          0  ISSUED:          0  USEFUL:          0  USELESS:          0
cpu0_L1I AVERAGE MISS LATENCY: 41.1189 cycles
cpu0_STLB TOTAL     ACCESS:      36341  HIT:      35209  MISS:       1132
cpu0_STLB LOAD      ACCESS:      33235  HIT:      32335  MISS:        900
cpu0_STLB RFO       ACCESS:       3106  HIT:       2874  MISS:        232
cpu0_STLB PREFETCH  ACCESS:          0  HIT:          0  MISS:          0
cpu0_STLB WRITEBACK ACCESS:          0  HIT:          0  MISS:          0
cpu0_STLB TRANSLATION ACCESS:          0  HIT:          0  MISS:          0
cpu0_STLB PREFETCH  REQUESTED:          0  ISSUED:          0  USEFUL:          0  USELESS:          0
cpu0_STLB AVERAGE MISS LATENCY: 107.815 cycles
cpu0_L1D TOTAL     ACCESS:   23787946  HIT:   23473612  MISS:     314334
cpu0_L1D LOAD      ACCESS:   17652556  HIT:   17425663  MISS:     226893
cpu0_L1D RFO       ACCESS:    6134296  HIT:    6047097  MISS:      87199
cpu0_L1D PREFETCH  ACCESS:          0  HIT:          0  MISS:          0
cpu0_L1D WRITEBACK ACCESS:          0  HIT:          0  MISS:          0
cpu0_L1D TRANSLATION ACCESS:       1094  HIT:        852  MISS:        242
cpu0_L1D PREFETCH  REQUESTED:          0  ISSUED:          0  USEFUL:          0  USELESS:          0
cpu0_L1D AVERAGE MISS LATENCY: 69.6765 cycles
cpu0_L2C TOTAL     ACCESS:     428259  HIT:     237213  MISS:     191046
cpu0_L2C LOAD      ACCESS:     252305  HIT:     142054  MISS:     110251
cpu0_L2C RFO       ACCESS:      87199  HIT:       6600  MISS:      80599
cpu0_L2C PREFETCH  ACCESS:          0  HIT:          0  MISS:          0
cpu0_L2C WRITEBACK ACCESS:      88513  HIT:      88339  MISS:        174
cpu0_L2C TRANSLATION ACCESS:        242  HIT:        220  MISS:         22
cpu0_L2C PREFETCH  REQUESTED:          0  ISSUED:          0  USEFUL:          0  USELESS:          0
cpu0_L2C AVERAGE MISS LATENCY: 100.477 cycles
LLC TOTAL     ACCESS:     266194  HIT:     184977  MISS:      81217
LLC LOAD      ACCESS:     110251  HIT:      63627  MISS:      46624
LLC RFO       ACCESS:      80599  HIT:      52898  MISS:      27701
LLC PREFETCH  ACCESS:          0  HIT:          0  MISS:          0
LLC WRITEBACK ACCESS:      75322  HIT:      68437  MISS:       6885
LLC TRANSLATION ACCESS:         22  HIT:         15  MISS:          7
LLC PREFETCH  REQUESTED:          0  ISSUED:          0  USEFUL:          0  USELESS:          0
LLC AVERAGE MISS LATENCY: 186.995 cycles
Insertion Distribution: 
	LOAD 8745 0 32988 17837 
	RFO 8886 0 17615 7271 
	PREF 0 0 0 0 
	WRITEBACK 0 0 0 6885 
	 2 0 15 1 
Total Prefetch Downgrades: 0

DRAM Statistics
 CHANNEL 0
 RQ ROW_BUFFER_HIT:      27321  ROW_BUFFER_MISS:      46989
 DBUS AVG_CONGESTED_CYCLE:    3.89363
 WQ ROW_BUFFER_HIT:       3320  ROW_BUFFER_MISS:      22025  FULL:          0


CPU 0 Branch Prediction Accuracy: 92.8368% MPKI: 5.81059 Average ROB Occupancy at Mispredict: 122.836
Branch type MPKI
BRANCH_DIRECT_JUMP: 0.00172
BRANCH_INDIRECT: 0.00314
BRANCH_CONDITIONAL: 5.80098
BRANCH_DIRECT_CALL: 0.00111
BRANCH_INDIRECT_CALL: 0.00157
BRANCH_RETURN: 0.00207

