
*** ChampSim Multicore Out-of-Order Simulator ***

Warmup Instructions: 10000000
Simulation Instructions: 100000000
Number of CPUs: 1
Off-chip DRAM Size: 4 GiB Channels: 1 Width: 64-bit Data Rate: 3200 MT/s

VirtualMemory physical capacity: 8588881920 num_ppages: 2096895
VirtualMemory page size: 4096 log2_page_size: 12

CPU 0 runs /Users/brandon/Documents/CoursesWi22/CSE240C/Homework2/traces/hmmer_546B.trace.xz
CPU 0 Bimodal branch predictor
Basic BTB sets: 1024 ways: 8 indirect buffer size: 4096 RAS size: 64
Initialize SRRIP state
Heartbeat CPU 0 instructions: 10000000 cycles: 3988661 heartbeat IPC: 2.50711 cumulative IPC: 2.50711 (Simulation time: 0 hr 1 min 16 sec) 

Warmup complete CPU 0 instructions: 10000005 cycles: 3988665 (Simulation time: 0 hr 1 min 16 sec) 

Heartbeat CPU 0 instructions: 20000001 cycles: 8324542 heartbeat IPC: 2.30634 cumulative IPC: 2.30634 (Simulation time: 0 hr 2 min 50 sec) 
Heartbeat CPU 0 instructions: 30000003 cycles: 12664678 heartbeat IPC: 2.30408 cumulative IPC: 2.30521 (Simulation time: 0 hr 4 min 24 sec) 
Heartbeat CPU 0 instructions: 40000004 cycles: 17025556 heartbeat IPC: 2.29312 cumulative IPC: 2.30116 (Simulation time: 0 hr 5 min 58 sec) 
Heartbeat CPU 0 instructions: 50000001 cycles: 21365497 heartbeat IPC: 2.30418 cumulative IPC: 2.30192 (Simulation time: 0 hr 7 min 32 sec) 
Heartbeat CPU 0 instructions: 60000000 cycles: 25694280 heartbeat IPC: 2.31012 cumulative IPC: 2.30355 (Simulation time: 0 hr 9 min 5 sec) 
Heartbeat CPU 0 instructions: 70000002 cycles: 30028419 heartbeat IPC: 2.30726 cumulative IPC: 2.30417 (Simulation time: 0 hr 10 min 36 sec) 
Heartbeat CPU 0 instructions: 80000004 cycles: 34362219 heartbeat IPC: 2.30744 cumulative IPC: 2.30464 (Simulation time: 0 hr 12 min 9 sec) 
Heartbeat CPU 0 instructions: 90000004 cycles: 38706321 heartbeat IPC: 2.30197 cumulative IPC: 2.3043 (Simulation time: 0 hr 13 min 42 sec) 
Heartbeat CPU 0 instructions: 100000000 cycles: 43034453 heartbeat IPC: 2.31046 cumulative IPC: 2.30499 (Simulation time: 0 hr 15 min 13 sec) 
Heartbeat CPU 0 instructions: 110000000 cycles: 47380504 heartbeat IPC: 2.30094 cumulative IPC: 2.30458 (Simulation time: 0 hr 16 min 46 sec) 
Finished CPU 0 instructions: 100000000 cycles: 43391840 cumulative IPC: 2.30458 (Simulation time: 0 hr 16 min 46 sec) 

ChampSim completed all CPUs

Region of Interest Statistics

CPU 0 cumulative IPC: 2.30458 instructions: 100000000 cycles: 43391840
cpu0_DTLB TOTAL     ACCESS:   40424170  HIT:   40414915  MISS:       9255
cpu0_DTLB LOAD      ACCESS:   32256486  HIT:   32252154  MISS:       4332
cpu0_DTLB RFO       ACCESS:    8167684  HIT:    8162761  MISS:       4923
cpu0_DTLB PREFETCH  ACCESS:          0  HIT:          0  MISS:          0
cpu0_DTLB WRITEBACK ACCESS:          0  HIT:          0  MISS:          0
cpu0_DTLB TRANSLATION ACCESS:          0  HIT:          0  MISS:          0
cpu0_DTLB PREFETCH  REQUESTED:          0  ISSUED:          0  USEFUL:          0  USELESS:          0
cpu0_DTLB AVERAGE MISS LATENCY: 14.4367 cycles
cpu0_ITLB TOTAL     ACCESS:     827559  HIT:     827415  MISS:        144
cpu0_ITLB LOAD      ACCESS:     827559  HIT:     827415  MISS:        144
cpu0_ITLB RFO       ACCESS:          0  HIT:          0  MISS:          0
cpu0_ITLB PREFETCH  ACCESS:          0  HIT:          0  MISS:          0
cpu0_ITLB WRITEBACK ACCESS:          0  HIT:          0  MISS:          0
cpu0_ITLB TRANSLATION ACCESS:          0  HIT:          0  MISS:          0
cpu0_ITLB PREFETCH  REQUESTED:          0  ISSUED:          0  USEFUL:          0  USELESS:          0
cpu0_ITLB AVERAGE MISS LATENCY: 14.7778 cycles
cpu0_L1I TOTAL     ACCESS:     102102  HIT:     102017  MISS:         85
cpu0_L1I LOAD      ACCESS:     102102  HIT:     102017  MISS:         85
cpu0_L1I RFO       ACCESS:          0  HIT:          0  MISS:          0
cpu0_L1I PREFETCH  ACCESS:          0  HIT:          0  MISS:          0
cpu0_L1I WRITEBACK ACCESS:          0  HIT:          0  MISS:          0
cpu0_L1I TRANSLATION ACCESS:          0  HIT:          0  MISS:          0
cpu0_L1I PREFETCH  REQUESTED:          0  ISSUED:          0  USEFUL:          0  USELESS:          0
cpu0_L1I AVERAGE MISS LATENCY: 166.047 cycles
cpu0_STLB TOTAL     ACCESS:       9399  HIT:       9154  MISS:        245
cpu0_STLB LOAD      ACCESS:       4476  HIT:       4459  MISS:         17
cpu0_STLB RFO       ACCESS:       4923  HIT:       4695  MISS:        228
cpu0_STLB PREFETCH  ACCESS:          0  HIT:          0  MISS:          0
cpu0_STLB WRITEBACK ACCESS:          0  HIT:          0  MISS:          0
cpu0_STLB TRANSLATION ACCESS:          0  HIT:          0  MISS:          0
cpu0_STLB PREFETCH  REQUESTED:          0  ISSUED:          0  USEFUL:          0  USELESS:          0
cpu0_STLB AVERAGE MISS LATENCY: 208.482 cycles
cpu0_L1D TOTAL     ACCESS:   34708723  HIT:   34217969  MISS:     490754
cpu0_L1D LOAD      ACCESS:   28641266  HIT:   28460922  MISS:     180344
cpu0_L1D RFO       ACCESS:    6067212  HIT:    5756816  MISS:     310396
cpu0_L1D PREFETCH  ACCESS:          0  HIT:          0  MISS:          0
cpu0_L1D WRITEBACK ACCESS:          0  HIT:          0  MISS:          0
cpu0_L1D TRANSLATION ACCESS:        245  HIT:        231  MISS:         14
cpu0_L1D PREFETCH  REQUESTED:          0  ISSUED:          0  USEFUL:          0  USELESS:          0
cpu0_L1D AVERAGE MISS LATENCY: 29.8585 cycles
cpu0_L2C TOTAL     ACCESS:     803028  HIT:     578809  MISS:     224219
cpu0_L2C LOAD      ACCESS:     180426  HIT:     170937  MISS:       9489
cpu0_L2C RFO       ACCESS:     310396  HIT:      95708  MISS:     214688
cpu0_L2C PREFETCH  ACCESS:          0  HIT:          0  MISS:          0
cpu0_L2C WRITEBACK ACCESS:     312192  HIT:     312159  MISS:         33
cpu0_L2C TRANSLATION ACCESS:         14  HIT:          5  MISS:          9
cpu0_L2C PREFETCH  REQUESTED:          0  ISSUED:          0  USEFUL:          0  USELESS:          0
cpu0_L2C AVERAGE MISS LATENCY: 41.3122 cycles
LLC TOTAL     ACCESS:     440955  HIT:     426269  MISS:      14686
LLC LOAD      ACCESS:       9489  HIT:       9082  MISS:        407
LLC RFO       ACCESS:     214311  HIT:     200039  MISS:      14272
LLC PREFETCH  ACCESS:          0  HIT:          0  MISS:          0
LLC WRITEBACK ACCESS:     217146  HIT:     217139  MISS:          7
LLC TRANSLATION ACCESS:          9  HIT:          9  MISS:          0
LLC PREFETCH  REQUESTED:          0  ISSUED:          0  USEFUL:          0  USELESS:          0
LLC AVERAGE MISS LATENCY: 310.677 cycles
Insertion Distribution: 
	LOAD 0 0 2125 0 
	RFO 14805 0 10158 2 
	PREF 0 0 0 0 
	WRITEBACK 0 0 0 7 
	 0 0 13 0 
Total Prefetch Downgrades: 0

DRAM Statistics
 CHANNEL 0
 RQ ROW_BUFFER_HIT:         29  ROW_BUFFER_MISS:      14650
 DBUS AVG_CONGESTED_CYCLE:    3.95341
 WQ ROW_BUFFER_HIT:         96  ROW_BUFFER_MISS:        339  FULL:          0


CPU 0 Branch Prediction Accuracy: 98.8434% MPKI: 0.45151 Average ROB Occupancy at Mispredict: 233.228
Branch type MPKI
BRANCH_DIRECT_JUMP: 0.00025
BRANCH_INDIRECT: 0.0025
BRANCH_CONDITIONAL: 0.44835
BRANCH_DIRECT_CALL: 0.00018
BRANCH_INDIRECT_CALL: 3e-05
BRANCH_RETURN: 0.0002

