
*** ChampSim Multicore Out-of-Order Simulator ***

Warmup Instructions: 10000000
Simulation Instructions: 100000000
Number of CPUs: 1
Off-chip DRAM Size: 4 GiB Channels: 1 Width: 64-bit Data Rate: 3200 MT/s

VirtualMemory physical capacity: 8588881920 num_ppages: 2096895
VirtualMemory page size: 4096 log2_page_size: 12

CPU 0 runs /Users/brandon/Documents/CoursesWi22/CSE240C/Homework2/traces/leslie3d_1116B.trace.xz
CPU 0 Bimodal branch predictor
Basic BTB sets: 1024 ways: 8 indirect buffer size: 4096 RAS size: 64
Initialize SRRIP state
Heartbeat CPU 0 instructions: 10000000 cycles: 3692434 heartbeat IPC: 2.70824 cumulative IPC: 2.70824 (Simulation time: 0 hr 1 min 8 sec) 

Warmup complete CPU 0 instructions: 10000005 cycles: 3692435 (Simulation time: 0 hr 1 min 8 sec) 

Heartbeat CPU 0 instructions: 20000000 cycles: 13943907 heartbeat IPC: 0.97547 cumulative IPC: 0.975469 (Simulation time: 0 hr 3 min 12 sec) 
Heartbeat CPU 0 instructions: 30000000 cycles: 24442167 heartbeat IPC: 0.952539 cumulative IPC: 0.963868 (Simulation time: 0 hr 5 min 21 sec) 
Heartbeat CPU 0 instructions: 40000004 cycles: 37260179 heartbeat IPC: 0.780152 cumulative IPC: 0.893715 (Simulation time: 0 hr 7 min 43 sec) 
Heartbeat CPU 0 instructions: 50000000 cycles: 58479526 heartbeat IPC: 0.471268 cumulative IPC: 0.730099 (Simulation time: 0 hr 11 min 3 sec) 
Heartbeat CPU 0 instructions: 60000001 cycles: 110656257 heartbeat IPC: 0.191656 cumulative IPC: 0.467448 (Simulation time: 0 hr 18 min 0 sec) 
Heartbeat CPU 0 instructions: 70000000 cycles: 125758086 heartbeat IPC: 0.662171 cumulative IPC: 0.491539 (Simulation time: 0 hr 20 min 41 sec) 
Heartbeat CPU 0 instructions: 80000001 cycles: 139037760 heartbeat IPC: 0.753031 cumulative IPC: 0.517196 (Simulation time: 0 hr 23 min 6 sec) 
Heartbeat CPU 0 instructions: 90000004 cycles: 152287292 heartbeat IPC: 0.754744 cumulative IPC: 0.538377 (Simulation time: 0 hr 25 min 35 sec) 
Heartbeat CPU 0 instructions: 100000002 cycles: 165567974 heartbeat IPC: 0.752973 cumulative IPC: 0.555983 (Simulation time: 0 hr 28 min 5 sec) 
Heartbeat CPU 0 instructions: 110000001 cycles: 188422339 heartbeat IPC: 0.437553 cumulative IPC: 0.541331 (Simulation time: 0 hr 31 min 41 sec) 
Finished CPU 0 instructions: 100000000 cycles: 184729906 cumulative IPC: 0.541331 (Simulation time: 0 hr 31 min 41 sec) 

ChampSim completed all CPUs

Region of Interest Statistics

CPU 0 cumulative IPC: 0.541331 instructions: 100000000 cycles: 184729906
cpu0_DTLB TOTAL     ACCESS:   25801414  HIT:   25735710  MISS:      65704
cpu0_DTLB LOAD      ACCESS:   21173714  HIT:   21122050  MISS:      51664
cpu0_DTLB RFO       ACCESS:    4627700  HIT:    4613660  MISS:      14040
cpu0_DTLB PREFETCH  ACCESS:          0  HIT:          0  MISS:          0
cpu0_DTLB WRITEBACK ACCESS:          0  HIT:          0  MISS:          0
cpu0_DTLB TRANSLATION ACCESS:          0  HIT:          0  MISS:          0
cpu0_DTLB PREFETCH  REQUESTED:          0  ISSUED:          0  USEFUL:          0  USELESS:          0
cpu0_DTLB AVERAGE MISS LATENCY: 83.5098 cycles
cpu0_ITLB TOTAL     ACCESS:    2880824  HIT:    2880806  MISS:         18
cpu0_ITLB LOAD      ACCESS:    2880824  HIT:    2880806  MISS:         18
cpu0_ITLB RFO       ACCESS:          0  HIT:          0  MISS:          0
cpu0_ITLB PREFETCH  ACCESS:          0  HIT:          0  MISS:          0
cpu0_ITLB WRITEBACK ACCESS:          0  HIT:          0  MISS:          0
cpu0_ITLB TRANSLATION ACCESS:          0  HIT:          0  MISS:          0
cpu0_ITLB PREFETCH  REQUESTED:          0  ISSUED:          0  USEFUL:          0  USELESS:          0
cpu0_ITLB AVERAGE MISS LATENCY: 427.222 cycles
cpu0_L1I TOTAL     ACCESS:    1780853  HIT:    1780381  MISS:        472
cpu0_L1I LOAD      ACCESS:    1780853  HIT:    1780381  MISS:        472
cpu0_L1I RFO       ACCESS:          0  HIT:          0  MISS:          0
cpu0_L1I PREFETCH  ACCESS:          0  HIT:          0  MISS:          0
cpu0_L1I WRITEBACK ACCESS:          0  HIT:          0  MISS:          0
cpu0_L1I TRANSLATION ACCESS:          0  HIT:          0  MISS:          0
cpu0_L1I PREFETCH  REQUESTED:          0  ISSUED:          0  USEFUL:          0  USELESS:          0
cpu0_L1I AVERAGE MISS LATENCY: 378.638 cycles
cpu0_STLB TOTAL     ACCESS:      65722  HIT:      34098  MISS:      31624
cpu0_STLB LOAD      ACCESS:      51682  HIT:      28216  MISS:      23466
cpu0_STLB RFO       ACCESS:      14040  HIT:       5882  MISS:       8158
cpu0_STLB PREFETCH  ACCESS:          0  HIT:          0  MISS:          0
cpu0_STLB WRITEBACK ACCESS:          0  HIT:          0  MISS:          0
cpu0_STLB TRANSLATION ACCESS:          0  HIT:          0  MISS:          0
cpu0_STLB PREFETCH  REQUESTED:          0  ISSUED:          0  USEFUL:          0  USELESS:          0
cpu0_STLB AVERAGE MISS LATENCY: 155.031 cycles
cpu0_L1D TOTAL     ACCESS:   24455852  HIT:   21045979  MISS:    3409873
cpu0_L1D LOAD      ACCESS:   16304852  HIT:   13687874  MISS:    2616978
cpu0_L1D RFO       ACCESS:    8121673  HIT:    7332419  MISS:     789254
cpu0_L1D PREFETCH  ACCESS:          0  HIT:          0  MISS:          0
cpu0_L1D WRITEBACK ACCESS:          0  HIT:          0  MISS:          0
cpu0_L1D TRANSLATION ACCESS:      29327  HIT:      25686  MISS:       3641
cpu0_L1D PREFETCH  REQUESTED:          0  ISSUED:          0  USEFUL:          0  USELESS:          0
cpu0_L1D AVERAGE MISS LATENCY: 517.304 cycles
cpu0_L2C TOTAL     ACCESS:    4454693  HIT:    1717534  MISS:    2737159
cpu0_L2C LOAD      ACCESS:    2617403  HIT:     507034  MISS:    2110369
cpu0_L2C RFO       ACCESS:     789177  HIT:     162755  MISS:     626422
cpu0_L2C PREFETCH  ACCESS:          0  HIT:          0  MISS:          0
cpu0_L2C WRITEBACK ACCESS:    1044472  HIT:    1044202  MISS:        270
cpu0_L2C TRANSLATION ACCESS:       3641  HIT:       3543  MISS:         98
cpu0_L2C PREFETCH  REQUESTED:          0  ISSUED:          0  USEFUL:          0  USELESS:          0
cpu0_L2C AVERAGE MISS LATENCY: 630.773 cycles
LLC TOTAL     ACCESS:    3497882  HIT:     662123  MISS:    2835759
LLC LOAD      ACCESS:    2110369  HIT:     382258  MISS:    1728111
LLC RFO       ACCESS:     626421  HIT:     120228  MISS:     506193
LLC PREFETCH  ACCESS:          0  HIT:          0  MISS:          0
LLC WRITEBACK ACCESS:     760994  HIT:     159578  MISS:     601416
LLC TRANSLATION ACCESS:         98  HIT:         59  MISS:         39
LLC PREFETCH  REQUESTED:          0  ISSUED:          0  USEFUL:          0  USELESS:          0
LLC AVERAGE MISS LATENCY: 588.537 cycles
Insertion Distribution: 
	LOAD 73375 0 241698 1524718 
	RFO 6928 0 27927 497738 
	PREF 0 0 0 0 
	WRITEBACK 0 0 0 621029 
	 2 0 37 15 
Total Prefetch Downgrades: 0

DRAM Statistics
 CHANNEL 0
 RQ ROW_BUFFER_HIT:     221246  ROW_BUFFER_MISS:    2012857
 DBUS AVG_CONGESTED_CYCLE:    3.95929
 WQ ROW_BUFFER_HIT:      62066  ROW_BUFFER_MISS:     580006  FULL:      26933


CPU 0 Branch Prediction Accuracy: 96.8713% MPKI: 1.55303 Average ROB Occupancy at Mispredict: 299.712
Branch type MPKI
BRANCH_DIRECT_JUMP: 0.00018
BRANCH_INDIRECT: 0
BRANCH_CONDITIONAL: 1.55065
BRANCH_DIRECT_CALL: 0.00113
BRANCH_INDIRECT_CALL: 0
BRANCH_RETURN: 0.00107

