
*** ChampSim Multicore Out-of-Order Simulator ***

Warmup Instructions: 10000000
Simulation Instructions: 100000000
Number of CPUs: 1
Off-chip DRAM Size: 4 GiB Channels: 1 Width: 64-bit Data Rate: 3200 MT/s

VirtualMemory physical capacity: 8588881920 num_ppages: 2096895
VirtualMemory page size: 4096 log2_page_size: 12

CPU 0 runs /Users/brandon/Documents/CoursesWi22/CSE240C/Homework2/traces/mcf_250B.trace.xz
CPU 0 Bimodal branch predictor
Basic BTB sets: 1024 ways: 8 indirect buffer size: 4096 RAS size: 64
Initialize SRRIP state
Heartbeat CPU 0 instructions: 10000001 cycles: 3834275 heartbeat IPC: 2.60806 cumulative IPC: 2.60806 (Simulation time: 0 hr 1 min 7 sec) 

Warmup complete CPU 0 instructions: 10000001 cycles: 3834275 (Simulation time: 0 hr 1 min 7 sec) 

Heartbeat CPU 0 instructions: 20000000 cycles: 146134003 heartbeat IPC: 0.0702742 cumulative IPC: 0.0702742 (Simulation time: 0 hr 5 min 6 sec) 
Heartbeat CPU 0 instructions: 30000000 cycles: 283547848 heartbeat IPC: 0.0727729 cumulative IPC: 0.0715017 (Simulation time: 0 hr 9 min 8 sec) 
Heartbeat CPU 0 instructions: 40000000 cycles: 428988869 heartbeat IPC: 0.0687564 cumulative IPC: 0.0705626 (Simulation time: 0 hr 13 min 23 sec) 
Heartbeat CPU 0 instructions: 50000000 cycles: 569395418 heartbeat IPC: 0.0712217 cumulative IPC: 0.0707262 (Simulation time: 0 hr 17 min 46 sec) 
Heartbeat CPU 0 instructions: 60000000 cycles: 709415370 heartbeat IPC: 0.0714184 cumulative IPC: 0.0708636 (Simulation time: 0 hr 22 min 23 sec) 
Heartbeat CPU 0 instructions: 70000000 cycles: 842399641 heartbeat IPC: 0.0751969 cumulative IPC: 0.0715508 (Simulation time: 0 hr 26 min 40 sec) 
Heartbeat CPU 0 instructions: 80000000 cycles: 984920534 heartbeat IPC: 0.0701651 cumulative IPC: 0.0713495 (Simulation time: 0 hr 31 min 8 sec) 
Heartbeat CPU 0 instructions: 90000000 cycles: 1106700404 heartbeat IPC: 0.0821154 cumulative IPC: 0.0725383 (Simulation time: 0 hr 34 min 50 sec) 
Heartbeat CPU 0 instructions: 100000000 cycles: 1242493868 heartbeat IPC: 0.0736412 cumulative IPC: 0.0726592 (Simulation time: 0 hr 39 min 1 sec) 
Heartbeat CPU 0 instructions: 110000000 cycles: 1384973281 heartbeat IPC: 0.0701856 cumulative IPC: 0.072404 (Simulation time: 0 hr 43 min 21 sec) 
Finished CPU 0 instructions: 100000000 cycles: 1381139007 cumulative IPC: 0.072404 (Simulation time: 0 hr 43 min 21 sec) 

ChampSim completed all CPUs

Region of Interest Statistics

CPU 0 cumulative IPC: 0.072404 instructions: 100000000 cycles: 1381139007
cpu0_DTLB TOTAL     ACCESS:   20765275  HIT:    2975000  MISS:   17790275
cpu0_DTLB LOAD      ACCESS:   20269140  HIT:    2534748  MISS:   17734392
cpu0_DTLB RFO       ACCESS:     496135  HIT:     440252  MISS:      55883
cpu0_DTLB PREFETCH  ACCESS:          0  HIT:          0  MISS:          0
cpu0_DTLB WRITEBACK ACCESS:          0  HIT:          0  MISS:          0
cpu0_DTLB TRANSLATION ACCESS:          0  HIT:          0  MISS:          0
cpu0_DTLB PREFETCH  REQUESTED:          0  ISSUED:          0  USEFUL:          0  USELESS:          0
cpu0_DTLB AVERAGE MISS LATENCY: 10.475 cycles
cpu0_ITLB TOTAL     ACCESS:   11316089  HIT:   11316089  MISS:          0
cpu0_ITLB LOAD      ACCESS:   11316089  HIT:   11316089  MISS:          0
cpu0_ITLB RFO       ACCESS:          0  HIT:          0  MISS:          0
cpu0_ITLB PREFETCH  ACCESS:          0  HIT:          0  MISS:          0
cpu0_ITLB WRITEBACK ACCESS:          0  HIT:          0  MISS:          0
cpu0_ITLB TRANSLATION ACCESS:          0  HIT:          0  MISS:          0
cpu0_ITLB PREFETCH  REQUESTED:          0  ISSUED:          0  USEFUL:          0  USELESS:          0
cpu0_ITLB AVERAGE MISS LATENCY: nan cycles
cpu0_L1I TOTAL     ACCESS:          4  HIT:          4  MISS:          0
cpu0_L1I LOAD      ACCESS:          4  HIT:          4  MISS:          0
cpu0_L1I RFO       ACCESS:          0  HIT:          0  MISS:          0
cpu0_L1I PREFETCH  ACCESS:          0  HIT:          0  MISS:          0
cpu0_L1I WRITEBACK ACCESS:          0  HIT:          0  MISS:          0
cpu0_L1I TRANSLATION ACCESS:          0  HIT:          0  MISS:          0
cpu0_L1I PREFETCH  REQUESTED:          0  ISSUED:          0  USEFUL:          0  USELESS:          0
cpu0_L1I AVERAGE MISS LATENCY: nan cycles
cpu0_STLB TOTAL     ACCESS:   17790275  HIT:   17413122  MISS:     377153
cpu0_STLB LOAD      ACCESS:   17734392  HIT:   17359376  MISS:     375016
cpu0_STLB RFO       ACCESS:      55883  HIT:      53746  MISS:       2137
cpu0_STLB PREFETCH  ACCESS:          0  HIT:          0  MISS:          0
cpu0_STLB WRITEBACK ACCESS:          0  HIT:          0  MISS:          0
cpu0_STLB TRANSLATION ACCESS:          0  HIT:          0  MISS:          0
cpu0_STLB PREFETCH  REQUESTED:          0  ISSUED:          0  USEFUL:          0  USELESS:          0
cpu0_STLB AVERAGE MISS LATENCY: 69.5489 cycles
cpu0_L1D TOTAL     ACCESS:   21382051  HIT:    3438456  MISS:   17943595
cpu0_L1D LOAD      ACCESS:   20341229  HIT:    2557373  MISS:   17783856
cpu0_L1D RFO       ACCESS:     664700  HIT:     633046  MISS:      31654
cpu0_L1D PREFETCH  ACCESS:          0  HIT:          0  MISS:          0
cpu0_L1D WRITEBACK ACCESS:          0  HIT:          0  MISS:          0
cpu0_L1D TRANSLATION ACCESS:     376122  HIT:     248037  MISS:     128085
cpu0_L1D PREFETCH  REQUESTED:          0  ISSUED:          0  USEFUL:          0  USELESS:          0
cpu0_L1D AVERAGE MISS LATENCY: 227.549 cycles
cpu0_L2C TOTAL     ACCESS:   18302604  HIT:    5810214  MISS:   12492390
cpu0_L2C LOAD      ACCESS:   17783828  HIT:    5401302  MISS:   12382526
cpu0_L2C RFO       ACCESS:      31653  HIT:       9254  MISS:      22399
cpu0_L2C PREFETCH  ACCESS:          0  HIT:          0  MISS:          0
cpu0_L2C WRITEBACK ACCESS:     359038  HIT:     359030  MISS:          8
cpu0_L2C TRANSLATION ACCESS:     128085  HIT:      40628  MISS:      87457
cpu0_L2C PREFETCH  REQUESTED:          0  ISSUED:          0  USEFUL:          0  USELESS:          0
cpu0_L2C AVERAGE MISS LATENCY: 311.032 cycles
LLC TOTAL     ACCESS:   12783341  HIT:    5932228  MISS:    6851113
LLC LOAD      ACCESS:   12382526  HIT:    5654478  MISS:    6728048
LLC RFO       ACCESS:      22399  HIT:      13815  MISS:       8584
LLC PREFETCH  ACCESS:          0  HIT:          0  MISS:          0
LLC WRITEBACK ACCESS:     290959  HIT:     181150  MISS:     109809
LLC TRANSLATION ACCESS:      87457  HIT:      82785  MISS:       4672
LLC PREFETCH  REQUESTED:          0  ISSUED:          0  USEFUL:          0  USELESS:          0
LLC AVERAGE MISS LATENCY: 528.847 cycles
Insertion Distribution: 
	LOAD 108096 0 126034 7200698 
	RFO 2237 0 4296 5548 
	PREF 0 0 0 0 
	WRITEBACK 0 0 0 155230 
	 32 0 126 5006 
Total Prefetch Downgrades: 0

DRAM Statistics
 CHANNEL 0
 RQ ROW_BUFFER_HIT:       2766  ROW_BUFFER_MISS:    6738468
 DBUS AVG_CONGESTED_CYCLE:    3.96163
 WQ ROW_BUFFER_HIT:      10361  ROW_BUFFER_MISS:     141576  FULL:          0


CPU 0 Branch Prediction Accuracy: 91.6559% MPKI: 25.5287 Average ROB Occupancy at Mispredict: 24.4984
Branch type MPKI
BRANCH_DIRECT_JUMP: 2e-05
BRANCH_INDIRECT: 0
BRANCH_CONDITIONAL: 25.5287
BRANCH_DIRECT_CALL: 0
BRANCH_INDIRECT_CALL: 0
BRANCH_RETURN: 0

