
*** ChampSim Multicore Out-of-Order Simulator ***

Warmup Instructions: 10000000
Simulation Instructions: 100000000
Number of CPUs: 1
Off-chip DRAM Size: 4 GiB Channels: 1 Width: 64-bit Data Rate: 3200 MT/s

VirtualMemory physical capacity: 8588881920 num_ppages: 2096895
VirtualMemory page size: 4096 log2_page_size: 12

CPU 0 runs /Users/brandon/Documents/CoursesWi22/CSE240C/Homework2/traces/xalancbmk_99B.trace.xz
CPU 0 Bimodal branch predictor
Basic BTB sets: 1024 ways: 8 indirect buffer size: 4096 RAS size: 64
Initialize SRRIP state
Heartbeat CPU 0 instructions: 10000001 cycles: 3058727 heartbeat IPC: 3.26933 cumulative IPC: 3.26933 (Simulation time: 0 hr 0 min 53 sec) 

Warmup complete CPU 0 instructions: 10000001 cycles: 3058727 (Simulation time: 0 hr 0 min 53 sec) 

Heartbeat CPU 0 instructions: 20000003 cycles: 35554683 heartbeat IPC: 0.307731 cumulative IPC: 0.307731 (Simulation time: 0 hr 1 min 47 sec) 
Heartbeat CPU 0 instructions: 30000000 cycles: 71916349 heartbeat IPC: 0.275015 cumulative IPC: 0.290454 (Simulation time: 0 hr 2 min 46 sec) 
Heartbeat CPU 0 instructions: 40000000 cycles: 106240818 heartbeat IPC: 0.291337 cumulative IPC: 0.290748 (Simulation time: 0 hr 3 min 42 sec) 
Heartbeat CPU 0 instructions: 50000002 cycles: 140581840 heartbeat IPC: 0.291197 cumulative IPC: 0.29086 (Simulation time: 0 hr 4 min 38 sec) 
Heartbeat CPU 0 instructions: 60000002 cycles: 175567054 heartbeat IPC: 0.285835 cumulative IPC: 0.289841 (Simulation time: 0 hr 5 min 36 sec) 
Heartbeat CPU 0 instructions: 70000002 cycles: 209387342 heartbeat IPC: 0.295681 cumulative IPC: 0.290798 (Simulation time: 0 hr 6 min 33 sec) 
Heartbeat CPU 0 instructions: 80000001 cycles: 244383057 heartbeat IPC: 0.285749 cumulative IPC: 0.290066 (Simulation time: 0 hr 7 min 30 sec) 
Heartbeat CPU 0 instructions: 90000000 cycles: 280813455 heartbeat IPC: 0.274496 cumulative IPC: 0.288024 (Simulation time: 0 hr 8 min 30 sec) 
Heartbeat CPU 0 instructions: 100000000 cycles: 313363021 heartbeat IPC: 0.307224 cumulative IPC: 0.290038 (Simulation time: 0 hr 9 min 24 sec) 
Heartbeat CPU 0 instructions: 110000001 cycles: 346133833 heartbeat IPC: 0.30515 cumulative IPC: 0.291481 (Simulation time: 0 hr 10 min 17 sec) 
Finished CPU 0 instructions: 100000000 cycles: 343075106 cumulative IPC: 0.291481 (Simulation time: 0 hr 10 min 17 sec) 

ChampSim completed all CPUs

Region of Interest Statistics

CPU 0 cumulative IPC: 0.291481 instructions: 100000000 cycles: 343075106
cpu0_DTLB TOTAL     ACCESS:   22782635  HIT:   22221965  MISS:     560670
cpu0_DTLB LOAD      ACCESS:   21403475  HIT:   20852402  MISS:     551073
cpu0_DTLB RFO       ACCESS:    1379160  HIT:    1369563  MISS:       9597
cpu0_DTLB PREFETCH  ACCESS:          0  HIT:          0  MISS:          0
cpu0_DTLB WRITEBACK ACCESS:          0  HIT:          0  MISS:          0
cpu0_DTLB TRANSLATION ACCESS:          0  HIT:          0  MISS:          0
cpu0_DTLB PREFETCH  REQUESTED:          0  ISSUED:          0  USEFUL:          0  USELESS:          0
cpu0_DTLB AVERAGE MISS LATENCY: 37.0967 cycles
cpu0_ITLB TOTAL     ACCESS:   13331770  HIT:   13304412  MISS:      27358
cpu0_ITLB LOAD      ACCESS:   13331770  HIT:   13304412  MISS:      27358
cpu0_ITLB RFO       ACCESS:          0  HIT:          0  MISS:          0
cpu0_ITLB PREFETCH  ACCESS:          0  HIT:          0  MISS:          0
cpu0_ITLB WRITEBACK ACCESS:          0  HIT:          0  MISS:          0
cpu0_ITLB TRANSLATION ACCESS:          0  HIT:          0  MISS:          0
cpu0_ITLB PREFETCH  REQUESTED:          0  ISSUED:          0  USEFUL:          0  USELESS:          0
cpu0_ITLB AVERAGE MISS LATENCY: 10.9141 cycles
cpu0_L1I TOTAL     ACCESS:     671182  HIT:     564104  MISS:     107078
cpu0_L1I LOAD      ACCESS:     671182  HIT:     564104  MISS:     107078
cpu0_L1I RFO       ACCESS:          0  HIT:          0  MISS:          0
cpu0_L1I PREFETCH  ACCESS:          0  HIT:          0  MISS:          0
cpu0_L1I WRITEBACK ACCESS:          0  HIT:          0  MISS:          0
cpu0_L1I TRANSLATION ACCESS:          0  HIT:          0  MISS:          0
cpu0_L1I PREFETCH  REQUESTED:          0  ISSUED:          0  USEFUL:          0  USELESS:          0
cpu0_L1I AVERAGE MISS LATENCY: 24.5691 cycles
cpu0_STLB TOTAL     ACCESS:     588028  HIT:     173015  MISS:     415013
cpu0_STLB LOAD      ACCESS:     578431  HIT:     164978  MISS:     413453
cpu0_STLB RFO       ACCESS:       9597  HIT:       8037  MISS:       1560
cpu0_STLB PREFETCH  ACCESS:          0  HIT:          0  MISS:          0
cpu0_STLB WRITEBACK ACCESS:          0  HIT:          0  MISS:          0
cpu0_STLB TRANSLATION ACCESS:          0  HIT:          0  MISS:          0
cpu0_STLB PREFETCH  REQUESTED:          0  ISSUED:          0  USEFUL:          0  USELESS:          0
cpu0_STLB AVERAGE MISS LATENCY: 38.0079 cycles
cpu0_L1D TOTAL     ACCESS:   17708142  HIT:   14563029  MISS:    3145113
cpu0_L1D LOAD      ACCESS:   15467891  HIT:   12340677  MISS:    3127214
cpu0_L1D RFO       ACCESS:    1870194  HIT:    1858244  MISS:      11950
cpu0_L1D PREFETCH  ACCESS:          0  HIT:          0  MISS:          0
cpu0_L1D WRITEBACK ACCESS:          0  HIT:          0  MISS:          0
cpu0_L1D TRANSLATION ACCESS:     370057  HIT:     364108  MISS:       5949
cpu0_L1D PREFETCH  REQUESTED:          0  ISSUED:          0  USEFUL:          0  USELESS:          0
cpu0_L1D AVERAGE MISS LATENCY: 140.732 cycles
cpu0_L2C TOTAL     ACCESS:    3279971  HIT:     137012  MISS:    3142959
cpu0_L2C LOAD      ACCESS:    3234282  HIT:     102265  MISS:    3132017
cpu0_L2C RFO       ACCESS:      11946  HIT:       2667  MISS:       9279
cpu0_L2C PREFETCH  ACCESS:          0  HIT:          0  MISS:          0
cpu0_L2C WRITEBACK ACCESS:      27794  HIT:      27415  MISS:        379
cpu0_L2C TRANSLATION ACCESS:       5949  HIT:       4665  MISS:       1284
cpu0_L2C PREFETCH  REQUESTED:          0  ISSUED:          0  USEFUL:          0  USELESS:          0
cpu0_L2C AVERAGE MISS LATENCY: 130.125 cycles
LLC TOTAL     ACCESS:    3162899  HIT:     994278  MISS:    2168621
LLC LOAD      ACCESS:    3132017  HIT:     974204  MISS:    2157813
LLC RFO       ACCESS:       9279  HIT:       4254  MISS:       5025
LLC PREFETCH  ACCESS:          0  HIT:          0  MISS:          0
LLC WRITEBACK ACCESS:      20319  HIT:      14785  MISS:       5534
LLC TRANSLATION ACCESS:       1284  HIT:       1035  MISS:        249
LLC PREFETCH  REQUESTED:          0  ISSUED:          0  USEFUL:          0  USELESS:          0
LLC AVERAGE MISS LATENCY: 158.157 cycles
Insertion Distribution: 
	LOAD 6354 0 86591 2314958 
	RFO 0 0 2114 3219 
	PREF 0 0 0 0 
	WRITEBACK 0 0 0 5674 
	 0 0 28 242 
Total Prefetch Downgrades: 0

DRAM Statistics
 CHANNEL 0
 RQ ROW_BUFFER_HIT:     531078  ROW_BUFFER_MISS:    1632009
 DBUS AVG_CONGESTED_CYCLE:    3.91615
 WQ ROW_BUFFER_HIT:       2495  ROW_BUFFER_MISS:       3820  FULL:          0


CPU 0 Branch Prediction Accuracy: 90.7444% MPKI: 27.9345 Average ROB Occupancy at Mispredict: 19.3219
Branch type MPKI
BRANCH_DIRECT_JUMP: 0.00034
BRANCH_INDIRECT: 0.0087
BRANCH_CONDITIONAL: 27.8577
BRANCH_DIRECT_CALL: 0.00024
BRANCH_INDIRECT_CALL: 0.02508
BRANCH_RETURN: 0.04245

