
*** ChampSim Multicore Out-of-Order Simulator ***

Warmup Instructions: 10000000
Simulation Instructions: 100000000
Number of CPUs: 1
Off-chip DRAM Size: 4 GiB Channels: 1 Width: 64-bit Data Rate: 3200 MT/s

VirtualMemory physical capacity: 8588881920 num_ppages: 2096895
VirtualMemory page size: 4096 log2_page_size: 12

CPU 0 runs /datasets/cs240c-wi22-a00-public/data/Assignment2/cactusADM_734B.trace.xz
CPU 0 Bimodal branch predictor
Basic BTB sets: 1024 ways: 8 indirect buffer size: 4096 RAS size: 64
Initialize Hawkeye state
Heartbeat CPU 0 instructions: 10000002 cycles: 3647078 heartbeat IPC: 2.74192 cumulative IPC: 2.74192 (Simulation time: 0 hr 1 min 0 sec) 

Warmup complete CPU 0 instructions: 10000002 cycles: 3647078 (Simulation time: 0 hr 1 min 0 sec) 

Heartbeat CPU 0 instructions: 20000004 cycles: 14005491 heartbeat IPC: 0.965399 cumulative IPC: 0.965399 (Simulation time: 0 hr 2 min 53 sec) 
Heartbeat CPU 0 instructions: 30000001 cycles: 23375401 heartbeat IPC: 1.06725 cumulative IPC: 1.01377 (Simulation time: 0 hr 4 min 43 sec) 
Heartbeat CPU 0 instructions: 40000004 cycles: 32340210 heartbeat IPC: 1.11547 cumulative IPC: 1.04555 (Simulation time: 0 hr 6 min 30 sec) 
Heartbeat CPU 0 instructions: 50000000 cycles: 41307255 heartbeat IPC: 1.11519 cumulative IPC: 1.06213 (Simulation time: 0 hr 8 min 15 sec) 
Heartbeat CPU 0 instructions: 60000002 cycles: 47597059 heartbeat IPC: 1.58987 cumulative IPC: 1.13766 (Simulation time: 0 hr 9 min 45 sec) 
Heartbeat CPU 0 instructions: 70000003 cycles: 56357865 heartbeat IPC: 1.14145 cumulative IPC: 1.13829 (Simulation time: 0 hr 11 min 27 sec) 
Heartbeat CPU 0 instructions: 80000002 cycles: 64861263 heartbeat IPC: 1.176 cumulative IPC: 1.14353 (Simulation time: 0 hr 13 min 8 sec) 
Heartbeat CPU 0 instructions: 90000000 cycles: 73698249 heartbeat IPC: 1.13161 cumulative IPC: 1.14202 (Simulation time: 0 hr 14 min 53 sec) 
Heartbeat CPU 0 instructions: 100000004 cycles: 80071713 heartbeat IPC: 1.56901 cumulative IPC: 1.17763 (Simulation time: 0 hr 16 min 20 sec) 
Heartbeat CPU 0 instructions: 110000001 cycles: 88850409 heartbeat IPC: 1.13912 cumulative IPC: 1.17366 (Simulation time: 0 hr 18 min 3 sec) 
Finished CPU 0 instructions: 100000004 cycles: 85203332 cumulative IPC: 1.17366 (Simulation time: 0 hr 18 min 3 sec) 

ChampSim completed all CPUs

Region of Interest Statistics

CPU 0 cumulative IPC: 1.17366 instructions: 100000004 cycles: 85203332
cpu0_DTLB TOTAL     ACCESS:   21679744  HIT:   19834845  MISS:    1844899
cpu0_DTLB LOAD      ACCESS:   17814142  HIT:   16556992  MISS:    1257150
cpu0_DTLB RFO       ACCESS:    3865602  HIT:    3277853  MISS:     587749
cpu0_DTLB PREFETCH  ACCESS:          0  HIT:          0  MISS:          0
cpu0_DTLB WRITEBACK ACCESS:          0  HIT:          0  MISS:          0
cpu0_DTLB TRANSLATION ACCESS:          0  HIT:          0  MISS:          0
cpu0_DTLB PREFETCH  REQUESTED:          0  ISSUED:          0  USEFUL:          0  USELESS:          0
cpu0_DTLB AVERAGE MISS LATENCY: 17.376 cycles
cpu0_ITLB TOTAL     ACCESS:    1527010  HIT:    1527010  MISS:          0
cpu0_ITLB LOAD      ACCESS:    1527010  HIT:    1527010  MISS:          0
cpu0_ITLB RFO       ACCESS:          0  HIT:          0  MISS:          0
cpu0_ITLB PREFETCH  ACCESS:          0  HIT:          0  MISS:          0
cpu0_ITLB WRITEBACK ACCESS:          0  HIT:          0  MISS:          0
cpu0_ITLB TRANSLATION ACCESS:          0  HIT:          0  MISS:          0
cpu0_ITLB PREFETCH  REQUESTED:          0  ISSUED:          0  USEFUL:          0  USELESS:          0
cpu0_ITLB AVERAGE MISS LATENCY: -nan cycles
cpu0_L1I TOTAL     ACCESS:    7867366  HIT:    7867363  MISS:          3
cpu0_L1I LOAD      ACCESS:    7867366  HIT:    7867363  MISS:          3
cpu0_L1I RFO       ACCESS:          0  HIT:          0  MISS:          0
cpu0_L1I PREFETCH  ACCESS:          0  HIT:          0  MISS:          0
cpu0_L1I WRITEBACK ACCESS:          0  HIT:          0  MISS:          0
cpu0_L1I TRANSLATION ACCESS:          0  HIT:          0  MISS:          0
cpu0_L1I PREFETCH  REQUESTED:          0  ISSUED:          0  USEFUL:          0  USELESS:          0
cpu0_L1I AVERAGE MISS LATENCY: 549.333 cycles
cpu0_STLB TOTAL     ACCESS:    1844899  HIT:     891392  MISS:     953507
cpu0_STLB LOAD      ACCESS:    1257150  HIT:     640884  MISS:     616266
cpu0_STLB RFO       ACCESS:     587749  HIT:     250508  MISS:     337241
cpu0_STLB PREFETCH  ACCESS:          0  HIT:          0  MISS:          0
cpu0_STLB WRITEBACK ACCESS:          0  HIT:          0  MISS:          0
cpu0_STLB TRANSLATION ACCESS:          0  HIT:          0  MISS:          0
cpu0_STLB PREFETCH  REQUESTED:          0  ISSUED:          0  USEFUL:          0  USELESS:          0
cpu0_STLB AVERAGE MISS LATENCY: 16.0838 cycles
cpu0_L1D TOTAL     ACCESS:   37592742  HIT:   36272539  MISS:    1320203
cpu0_L1D LOAD      ACCESS:   25658960  HIT:   24608259  MISS:    1050701
cpu0_L1D RFO       ACCESS:   10981268  HIT:   10717120  MISS:     264148
cpu0_L1D PREFETCH  ACCESS:          0  HIT:          0  MISS:          0
cpu0_L1D WRITEBACK ACCESS:          0  HIT:          0  MISS:          0
cpu0_L1D TRANSLATION ACCESS:     952514  HIT:     947160  MISS:       5354
cpu0_L1D PREFETCH  REQUESTED:          0  ISSUED:          0  USEFUL:          0  USELESS:          0
cpu0_L1D AVERAGE MISS LATENCY: 291.519 cycles
cpu0_L2C TOTAL     ACCESS:    1588160  HIT:     691759  MISS:     896401
cpu0_L2C LOAD      ACCESS:    1050704  HIT:     418894  MISS:     631810
cpu0_L2C RFO       ACCESS:     264148  HIT:          0  MISS:     264148
cpu0_L2C PREFETCH  ACCESS:          0  HIT:          0  MISS:          0
cpu0_L2C WRITEBACK ACCESS:     267954  HIT:     267758  MISS:        196
cpu0_L2C TRANSLATION ACCESS:       5354  HIT:       5107  MISS:        247
cpu0_L2C PREFETCH  REQUESTED:          0  ISSUED:          0  USEFUL:          0  USELESS:          0
cpu0_L2C AVERAGE MISS LATENCY: 413.124 cycles
LLC TOTAL     ACCESS:    1162861  HIT:     335338  MISS:     827523
LLC LOAD      ACCESS:     631810  HIT:     147146  MISS:     484664
LLC RFO       ACCESS:     264148  HIT:      81411  MISS:     182737
LLC PREFETCH  ACCESS:          0  HIT:          0  MISS:          0
LLC WRITEBACK ACCESS:     266656  HIT:     106765  MISS:     159891
LLC TRANSLATION ACCESS:        247  HIT:         16  MISS:        231
LLC PREFETCH  REQUESTED:          0  ISSUED:          0  USEFUL:          0  USELESS:          0
LLC AVERAGE MISS LATENCY: 424.766 cycles
OPTgen accesses: 15001
OPTgen hits: 4754
OPTgen hit rate: 31.6912



DRAM Statistics
 CHANNEL 0
 RQ ROW_BUFFER_HIT:       6389  ROW_BUFFER_MISS:     661241
 DBUS AVG_CONGESTED_CYCLE:    3.97863
 WQ ROW_BUFFER_HIT:      17289  ROW_BUFFER_MISS:     220924  FULL:        431


CPU 0 Branch Prediction Accuracy: 97.7528% MPKI: 0.04677 Average ROB Occupancy at Mispredict: 283.808
Branch type MPKI
BRANCH_DIRECT_JUMP: 0
BRANCH_INDIRECT: 0
BRANCH_CONDITIONAL: 0.04677
BRANCH_DIRECT_CALL: 0
BRANCH_INDIRECT_CALL: 0
BRANCH_RETURN: 0

