
*** ChampSim Multicore Out-of-Order Simulator ***

Warmup Instructions: 10000000
Simulation Instructions: 100000000
Number of CPUs: 1
Off-chip DRAM Size: 4 GiB Channels: 1 Width: 64-bit Data Rate: 3200 MT/s

VirtualMemory physical capacity: 8588881920 num_ppages: 2096895
VirtualMemory page size: 4096 log2_page_size: 12

CPU 0 runs /datasets/cs240c-wi22-a00-public/data/Assignment2/gcc_13B.trace.xz
CPU 0 Bimodal branch predictor
Basic BTB sets: 1024 ways: 8 indirect buffer size: 4096 RAS size: 64
Initialize Hawkeye state
Heartbeat CPU 0 instructions: 10000003 cycles: 2971486 heartbeat IPC: 3.36532 cumulative IPC: 3.36532 (Simulation time: 0 hr 0 min 46 sec) 

Warmup complete CPU 0 instructions: 10000003 cycles: 2971486 (Simulation time: 0 hr 0 min 46 sec) 

Heartbeat CPU 0 instructions: 20000003 cycles: 49937346 heartbeat IPC: 0.212921 cumulative IPC: 0.212921 (Simulation time: 0 hr 2 min 59 sec) 
Heartbeat CPU 0 instructions: 30000002 cycles: 103047923 heartbeat IPC: 0.188286 cumulative IPC: 0.199847 (Simulation time: 0 hr 5 min 25 sec) 
Heartbeat CPU 0 instructions: 40000004 cycles: 138730806 heartbeat IPC: 0.280246 cumulative IPC: 0.220979 (Simulation time: 0 hr 7 min 36 sec) 
Heartbeat CPU 0 instructions: 50000002 cycles: 156939779 heartbeat IPC: 0.54918 cumulative IPC: 0.259794 (Simulation time: 0 hr 8 min 27 sec) 
Heartbeat CPU 0 instructions: 60000003 cycles: 174933518 heartbeat IPC: 0.555749 cumulative IPC: 0.290762 (Simulation time: 0 hr 9 min 18 sec) 
Heartbeat CPU 0 instructions: 70000000 cycles: 192697703 heartbeat IPC: 0.56293 cumulative IPC: 0.316245 (Simulation time: 0 hr 10 min 7 sec) 
Heartbeat CPU 0 instructions: 80000002 cycles: 209650696 heartbeat IPC: 0.589866 cumulative IPC: 0.338689 (Simulation time: 0 hr 10 min 55 sec) 
Heartbeat CPU 0 instructions: 90000000 cycles: 227786812 heartbeat IPC: 0.551386 cumulative IPC: 0.355848 (Simulation time: 0 hr 11 min 43 sec) 
Heartbeat CPU 0 instructions: 100000000 cycles: 245539343 heartbeat IPC: 0.5633 cumulative IPC: 0.37103 (Simulation time: 0 hr 12 min 31 sec) 
Heartbeat CPU 0 instructions: 110000002 cycles: 270343408 heartbeat IPC: 0.40316 cumulative IPC: 0.374011 (Simulation time: 0 hr 13 min 30 sec) 
Finished CPU 0 instructions: 100000004 cycles: 267371923 cumulative IPC: 0.374011 (Simulation time: 0 hr 13 min 30 sec) 

ChampSim completed all CPUs

Region of Interest Statistics

CPU 0 cumulative IPC: 0.374011 instructions: 100000004 cycles: 267371923
cpu0_DTLB TOTAL     ACCESS:   19465050  HIT:   19362860  MISS:     102190
cpu0_DTLB LOAD      ACCESS:   14028930  HIT:   13941727  MISS:      87203
cpu0_DTLB RFO       ACCESS:    5436120  HIT:    5421133  MISS:      14987
cpu0_DTLB PREFETCH  ACCESS:          0  HIT:          0  MISS:          0
cpu0_DTLB WRITEBACK ACCESS:          0  HIT:          0  MISS:          0
cpu0_DTLB TRANSLATION ACCESS:          0  HIT:          0  MISS:          0
cpu0_DTLB PREFETCH  REQUESTED:          0  ISSUED:          0  USEFUL:          0  USELESS:          0
cpu0_DTLB AVERAGE MISS LATENCY: 29.0341 cycles
cpu0_ITLB TOTAL     ACCESS:   10353028  HIT:   10352967  MISS:         61
cpu0_ITLB LOAD      ACCESS:   10353028  HIT:   10352967  MISS:         61
cpu0_ITLB RFO       ACCESS:          0  HIT:          0  MISS:          0
cpu0_ITLB PREFETCH  ACCESS:          0  HIT:          0  MISS:          0
cpu0_ITLB WRITEBACK ACCESS:          0  HIT:          0  MISS:          0
cpu0_ITLB TRANSLATION ACCESS:          0  HIT:          0  MISS:          0
cpu0_ITLB PREFETCH  REQUESTED:          0  ISSUED:          0  USEFUL:          0  USELESS:          0
cpu0_ITLB AVERAGE MISS LATENCY: 143.852 cycles
cpu0_L1I TOTAL     ACCESS:    6565303  HIT:    6564931  MISS:        372
cpu0_L1I LOAD      ACCESS:    6565303  HIT:    6564931  MISS:        372
cpu0_L1I RFO       ACCESS:          0  HIT:          0  MISS:          0
cpu0_L1I PREFETCH  ACCESS:          0  HIT:          0  MISS:          0
cpu0_L1I WRITEBACK ACCESS:          0  HIT:          0  MISS:          0
cpu0_L1I TRANSLATION ACCESS:          0  HIT:          0  MISS:          0
cpu0_L1I PREFETCH  REQUESTED:          0  ISSUED:          0  USEFUL:          0  USELESS:          0
cpu0_L1I AVERAGE MISS LATENCY: 171.419 cycles
cpu0_STLB TOTAL     ACCESS:     102251  HIT:      33351  MISS:      68900
cpu0_STLB LOAD      ACCESS:      87264  HIT:      30307  MISS:      56957
cpu0_STLB RFO       ACCESS:      14987  HIT:       3044  MISS:      11943
cpu0_STLB PREFETCH  ACCESS:          0  HIT:          0  MISS:          0
cpu0_STLB WRITEBACK ACCESS:          0  HIT:          0  MISS:          0
cpu0_STLB TRANSLATION ACCESS:          0  HIT:          0  MISS:          0
cpu0_STLB PREFETCH  REQUESTED:          0  ISSUED:          0  USEFUL:          0  USELESS:          0
cpu0_STLB AVERAGE MISS LATENCY: 29.8271 cycles
cpu0_L1D TOTAL     ACCESS:   26270800  HIT:   24727040  MISS:    1543760
cpu0_L1D LOAD      ACCESS:   12780774  HIT:   11513952  MISS:    1266822
cpu0_L1D RFO       ACCESS:   13421340  HIT:   13145474  MISS:     275866
cpu0_L1D PREFETCH  ACCESS:          0  HIT:          0  MISS:          0
cpu0_L1D WRITEBACK ACCESS:          0  HIT:          0  MISS:          0
cpu0_L1D TRANSLATION ACCESS:      68686  HIT:      67614  MISS:       1072
cpu0_L1D PREFETCH  REQUESTED:          0  ISSUED:          0  USEFUL:          0  USELESS:          0
cpu0_L1D AVERAGE MISS LATENCY: 260.888 cycles
cpu0_L2C TOTAL     ACCESS:    1956872  HIT:     461812  MISS:    1495060
cpu0_L2C LOAD      ACCESS:    1267194  HIT:      46442  MISS:    1220752
cpu0_L2C RFO       ACCESS:     275866  HIT:       1818  MISS:     274048
cpu0_L2C PREFETCH  ACCESS:          0  HIT:          0  MISS:          0
cpu0_L2C WRITEBACK ACCESS:     412740  HIT:     412689  MISS:         51
cpu0_L2C TRANSLATION ACCESS:       1072  HIT:        863  MISS:        209
cpu0_L2C PREFETCH  REQUESTED:          0  ISSUED:          0  USEFUL:          0  USELESS:          0
cpu0_L2C AVERAGE MISS LATENCY: 258.036 cycles
LLC TOTAL     ACCESS:    1905457  HIT:     272434  MISS:    1633023
LLC LOAD      ACCESS:    1220752  HIT:     151637  MISS:    1069115
LLC RFO       ACCESS:     274048  HIT:      31124  MISS:     242924
LLC PREFETCH  ACCESS:          0  HIT:          0  MISS:          0
LLC WRITEBACK ACCESS:     410448  HIT:      89563  MISS:     320885
LLC TRANSLATION ACCESS:        209  HIT:        110  MISS:         99
LLC PREFETCH  REQUESTED:          0  ISSUED:          0  USEFUL:          0  USELESS:          0
LLC AVERAGE MISS LATENCY: 217.011 cycles
OPTgen accesses: 30444
OPTgen hits: 5160
OPTgen hit rate: 16.9492



DRAM Statistics
 CHANNEL 0
 RQ ROW_BUFFER_HIT:     206474  ROW_BUFFER_MISS:    1105619
 DBUS AVG_CONGESTED_CYCLE:    3.93437
 WQ ROW_BUFFER_HIT:      45535  ROW_BUFFER_MISS:     344796  FULL:      10031


CPU 0 Branch Prediction Accuracy: 87.437% MPKI: 28.6507 Average ROB Occupancy at Mispredict: 19.8596
Branch type MPKI
BRANCH_DIRECT_JUMP: 0.0008
BRANCH_INDIRECT: 0.00403
BRANCH_CONDITIONAL: 28.6428
BRANCH_DIRECT_CALL: 0.00114
BRANCH_INDIRECT_CALL: 0.0008
BRANCH_RETURN: 0.00114

