
*** ChampSim Multicore Out-of-Order Simulator ***

Warmup Instructions: 10000000
Simulation Instructions: 100000000
Number of CPUs: 1
Off-chip DRAM Size: 4 GiB Channels: 1 Width: 64-bit Data Rate: 3200 MT/s

VirtualMemory physical capacity: 8588881920 num_ppages: 2096895
VirtualMemory page size: 4096 log2_page_size: 12

CPU 0 runs /datasets/cs240c-wi22-a00-public/data/Assignment2/mcf_158B.trace.xz
CPU 0 Bimodal branch predictor
Basic BTB sets: 1024 ways: 8 indirect buffer size: 4096 RAS size: 64
Initialize Hawkeye state
Heartbeat CPU 0 instructions: 10000002 cycles: 3864087 heartbeat IPC: 2.58793 cumulative IPC: 2.58793 (Simulation time: 0 hr 0 min 58 sec) 

Warmup complete CPU 0 instructions: 10000002 cycles: 3864087 (Simulation time: 0 hr 0 min 58 sec) 

Heartbeat CPU 0 instructions: 20000000 cycles: 139467807 heartbeat IPC: 0.0737443 cumulative IPC: 0.0737443 (Simulation time: 0 hr 4 min 43 sec) 
Heartbeat CPU 0 instructions: 30000000 cycles: 271354506 heartbeat IPC: 0.0758227 cumulative IPC: 0.074769 (Simulation time: 0 hr 8 min 22 sec) 
Heartbeat CPU 0 instructions: 40000001 cycles: 401946032 heartbeat IPC: 0.0765747 cumulative IPC: 0.0753614 (Simulation time: 0 hr 11 min 59 sec) 
Heartbeat CPU 0 instructions: 50000000 cycles: 521984034 heartbeat IPC: 0.0833069 cumulative IPC: 0.0772022 (Simulation time: 0 hr 15 min 19 sec) 
Heartbeat CPU 0 instructions: 60000000 cycles: 638688031 heartbeat IPC: 0.0856869 cumulative IPC: 0.078762 (Simulation time: 0 hr 18 min 36 sec) 
Heartbeat CPU 0 instructions: 70000002 cycles: 751984988 heartbeat IPC: 0.0882636 cumulative IPC: 0.0802009 (Simulation time: 0 hr 21 min 47 sec) 
Heartbeat CPU 0 instructions: 80000000 cycles: 868209531 heartbeat IPC: 0.0860403 cumulative IPC: 0.0809861 (Simulation time: 0 hr 25 min 6 sec) 
Heartbeat CPU 0 instructions: 90000003 cycles: 987466783 heartbeat IPC: 0.0838524 cumulative IPC: 0.0813337 (Simulation time: 0 hr 28 min 28 sec) 
Heartbeat CPU 0 instructions: 100000003 cycles: 1108186395 heartbeat IPC: 0.0828366 cumulative IPC: 0.0814979 (Simulation time: 0 hr 31 min 51 sec) 
Heartbeat CPU 0 instructions: 110000001 cycles: 1229042804 heartbeat IPC: 0.0827428 cumulative IPC: 0.0816207 (Simulation time: 0 hr 35 min 20 sec) 
Finished CPU 0 instructions: 100000002 cycles: 1225178718 cumulative IPC: 0.0816207 (Simulation time: 0 hr 35 min 20 sec) 

ChampSim completed all CPUs

Region of Interest Statistics

CPU 0 cumulative IPC: 0.0816207 instructions: 100000002 cycles: 1225178718
cpu0_DTLB TOTAL     ACCESS:   23556613  HIT:   12734698  MISS:   10821915
cpu0_DTLB LOAD      ACCESS:   20435475  HIT:    9980724  MISS:   10454751
cpu0_DTLB RFO       ACCESS:    3121138  HIT:    2753974  MISS:     367164
cpu0_DTLB PREFETCH  ACCESS:          0  HIT:          0  MISS:          0
cpu0_DTLB WRITEBACK ACCESS:          0  HIT:          0  MISS:          0
cpu0_DTLB TRANSLATION ACCESS:          0  HIT:          0  MISS:          0
cpu0_DTLB PREFETCH  REQUESTED:          0  ISSUED:          0  USEFUL:          0  USELESS:          0
cpu0_DTLB AVERAGE MISS LATENCY: 11.9631 cycles
cpu0_ITLB TOTAL     ACCESS:   12955242  HIT:   12955242  MISS:          0
cpu0_ITLB LOAD      ACCESS:   12955242  HIT:   12955242  MISS:          0
cpu0_ITLB RFO       ACCESS:          0  HIT:          0  MISS:          0
cpu0_ITLB PREFETCH  ACCESS:          0  HIT:          0  MISS:          0
cpu0_ITLB WRITEBACK ACCESS:          0  HIT:          0  MISS:          0
cpu0_ITLB TRANSLATION ACCESS:          0  HIT:          0  MISS:          0
cpu0_ITLB PREFETCH  REQUESTED:          0  ISSUED:          0  USEFUL:          0  USELESS:          0
cpu0_ITLB AVERAGE MISS LATENCY: -nan cycles
cpu0_L1I TOTAL     ACCESS:         19  HIT:         14  MISS:          5
cpu0_L1I LOAD      ACCESS:         19  HIT:         14  MISS:          5
cpu0_L1I RFO       ACCESS:          0  HIT:          0  MISS:          0
cpu0_L1I PREFETCH  ACCESS:          0  HIT:          0  MISS:          0
cpu0_L1I WRITEBACK ACCESS:          0  HIT:          0  MISS:          0
cpu0_L1I TRANSLATION ACCESS:          0  HIT:          0  MISS:          0
cpu0_L1I PREFETCH  REQUESTED:          0  ISSUED:          0  USEFUL:          0  USELESS:          0
cpu0_L1I AVERAGE MISS LATENCY: 194.2 cycles
cpu0_STLB TOTAL     ACCESS:   10821915  HIT:    9710656  MISS:    1111259
cpu0_STLB LOAD      ACCESS:   10454751  HIT:    9350258  MISS:    1104493
cpu0_STLB RFO       ACCESS:     367164  HIT:     360398  MISS:       6766
cpu0_STLB PREFETCH  ACCESS:          0  HIT:          0  MISS:          0
cpu0_STLB WRITEBACK ACCESS:          0  HIT:          0  MISS:          0
cpu0_STLB TRANSLATION ACCESS:          0  HIT:          0  MISS:          0
cpu0_STLB PREFETCH  REQUESTED:          0  ISSUED:          0  USEFUL:          0  USELESS:          0
cpu0_STLB AVERAGE MISS LATENCY: 28.8183 cycles
cpu0_L1D TOTAL     ACCESS:   27618117  HIT:   14074231  MISS:   13543886
cpu0_L1D LOAD      ACCESS:   22271391  HIT:    9101518  MISS:   13169873
cpu0_L1D RFO       ACCESS:    4239333  HIT:    4034326  MISS:     205007
cpu0_L1D PREFETCH  ACCESS:          0  HIT:          0  MISS:          0
cpu0_L1D WRITEBACK ACCESS:          0  HIT:          0  MISS:          0
cpu0_L1D TRANSLATION ACCESS:    1107393  HIT:     938387  MISS:     169006
cpu0_L1D PREFETCH  REQUESTED:          0  ISSUED:          0  USEFUL:          0  USELESS:          0
cpu0_L1D AVERAGE MISS LATENCY: 163.04 cycles
cpu0_L2C TOTAL     ACCESS:   15650971  HIT:    6137762  MISS:    9513209
cpu0_L2C LOAD      ACCESS:   13169510  HIT:    3841524  MISS:    9327986
cpu0_L2C RFO       ACCESS:     205001  HIT:      71773  MISS:     133228
cpu0_L2C PREFETCH  ACCESS:          0  HIT:          0  MISS:          0
cpu0_L2C WRITEBACK ACCESS:    2107454  HIT:    2107101  MISS:        353
cpu0_L2C TRANSLATION ACCESS:     169006  HIT:     117364  MISS:      51642
cpu0_L2C PREFETCH  REQUESTED:          0  ISSUED:          0  USEFUL:          0  USELESS:          0
cpu0_L2C AVERAGE MISS LATENCY: 216.385 cycles
LLC TOTAL     ACCESS:   11017565  HIT:    4303185  MISS:    6714380
LLC LOAD      ACCESS:    9327984  HIT:    3414691  MISS:    5913293
LLC RFO       ACCESS:     133228  HIT:      64080  MISS:      69148
LLC PREFETCH  ACCESS:          0  HIT:          0  MISS:          0
LLC WRITEBACK ACCESS:    1504711  HIT:     816768  MISS:     687943
LLC TRANSLATION ACCESS:      51642  HIT:       7646  MISS:      43996
LLC PREFETCH  REQUESTED:          0  ISSUED:          0  USEFUL:          0  USELESS:          0
LLC AVERAGE MISS LATENCY: 276.831 cycles
OPTgen accesses: 172517
OPTgen hits: 73210
OPTgen hit rate: 42.4364



DRAM Statistics
 CHANNEL 0
 RQ ROW_BUFFER_HIT:      18987  ROW_BUFFER_MISS:    6006575
 DBUS AVG_CONGESTED_CYCLE:     3.9658
 WQ ROW_BUFFER_HIT:      42652  ROW_BUFFER_MISS:    1011714  FULL:          0


CPU 0 Branch Prediction Accuracy: 85.5988% MPKI: 40.2398 Average ROB Occupancy at Mispredict: 17.1445
Branch type MPKI
BRANCH_DIRECT_JUMP: 4e-05
BRANCH_INDIRECT: 0
BRANCH_CONDITIONAL: 40.2397
BRANCH_DIRECT_CALL: 0
BRANCH_INDIRECT_CALL: 0
BRANCH_RETURN: 0

