
*** ChampSim Multicore Out-of-Order Simulator ***

Warmup Instructions: 10000000
Simulation Instructions: 100000000
Number of CPUs: 1
Off-chip DRAM Size: 4 GiB Channels: 1 Width: 64-bit Data Rate: 3200 MT/s

VirtualMemory physical capacity: 8588881920 num_ppages: 2096895
VirtualMemory page size: 4096 log2_page_size: 12

CPU 0 runs /datasets/cs240c-wi22-a00-public/data/Assignment2/omnetpp_4B.trace.xz
CPU 0 Bimodal branch predictor
Basic BTB sets: 1024 ways: 8 indirect buffer size: 4096 RAS size: 64
Initialize Hawkeye state
Heartbeat CPU 0 instructions: 10000002 cycles: 2526523 heartbeat IPC: 3.95801 cumulative IPC: 3.95801 (Simulation time: 0 hr 0 min 28 sec) 

Warmup complete CPU 0 instructions: 10000002 cycles: 2526523 (Simulation time: 0 hr 0 min 28 sec) 

Heartbeat CPU 0 instructions: 20000000 cycles: 9575971 heartbeat IPC: 1.41855 cumulative IPC: 1.41855 (Simulation time: 0 hr 1 min 8 sec) 
Heartbeat CPU 0 instructions: 30000001 cycles: 17409116 heartbeat IPC: 1.27663 cumulative IPC: 1.34385 (Simulation time: 0 hr 1 min 59 sec) 
Heartbeat CPU 0 instructions: 40000002 cycles: 25113328 heartbeat IPC: 1.29799 cumulative IPC: 1.32821 (Simulation time: 0 hr 2 min 48 sec) 
Heartbeat CPU 0 instructions: 50000000 cycles: 32562842 heartbeat IPC: 1.34237 cumulative IPC: 1.33172 (Simulation time: 0 hr 3 min 35 sec) 
Heartbeat CPU 0 instructions: 60000000 cycles: 40458811 heartbeat IPC: 1.26647 cumulative IPC: 1.31814 (Simulation time: 0 hr 4 min 25 sec) 
Heartbeat CPU 0 instructions: 70000000 cycles: 47895548 heartbeat IPC: 1.34468 cumulative IPC: 1.32249 (Simulation time: 0 hr 5 min 11 sec) 
Heartbeat CPU 0 instructions: 80000000 cycles: 55575736 heartbeat IPC: 1.30205 cumulative IPC: 1.31953 (Simulation time: 0 hr 6 min 2 sec) 
Heartbeat CPU 0 instructions: 90000000 cycles: 63746714 heartbeat IPC: 1.22384 cumulative IPC: 1.30676 (Simulation time: 0 hr 6 min 56 sec) 
Heartbeat CPU 0 instructions: 100000001 cycles: 70955655 heartbeat IPC: 1.38717 cumulative IPC: 1.31523 (Simulation time: 0 hr 7 min 40 sec) 
Heartbeat CPU 0 instructions: 110000002 cycles: 78931852 heartbeat IPC: 1.25373 cumulative IPC: 1.30881 (Simulation time: 0 hr 8 min 33 sec) 
Finished CPU 0 instructions: 100000000 cycles: 76405329 cumulative IPC: 1.30881 (Simulation time: 0 hr 8 min 33 sec) 

ChampSim completed all CPUs

Region of Interest Statistics

CPU 0 cumulative IPC: 1.30881 instructions: 100000000 cycles: 76405329
cpu0_DTLB TOTAL     ACCESS:   11765858  HIT:   10333952  MISS:    1431906
cpu0_DTLB LOAD      ACCESS:    9179695  HIT:    7749351  MISS:    1430344
cpu0_DTLB RFO       ACCESS:    2586163  HIT:    2584601  MISS:       1562
cpu0_DTLB PREFETCH  ACCESS:          0  HIT:          0  MISS:          0
cpu0_DTLB WRITEBACK ACCESS:          0  HIT:          0  MISS:          0
cpu0_DTLB TRANSLATION ACCESS:          0  HIT:          0  MISS:          0
cpu0_DTLB PREFETCH  REQUESTED:          0  ISSUED:          0  USEFUL:          0  USELESS:          0
cpu0_DTLB AVERAGE MISS LATENCY: 17.6997 cycles
cpu0_ITLB TOTAL     ACCESS:    7987551  HIT:    7963384  MISS:      24167
cpu0_ITLB LOAD      ACCESS:    7987551  HIT:    7963384  MISS:      24167
cpu0_ITLB RFO       ACCESS:          0  HIT:          0  MISS:          0
cpu0_ITLB PREFETCH  ACCESS:          0  HIT:          0  MISS:          0
cpu0_ITLB WRITEBACK ACCESS:          0  HIT:          0  MISS:          0
cpu0_ITLB TRANSLATION ACCESS:          0  HIT:          0  MISS:          0
cpu0_ITLB PREFETCH  REQUESTED:          0  ISSUED:          0  USEFUL:          0  USELESS:          0
cpu0_ITLB AVERAGE MISS LATENCY: 10.8433 cycles
cpu0_L1I TOTAL     ACCESS:    1939517  HIT:    1876673  MISS:      62844
cpu0_L1I LOAD      ACCESS:    1939517  HIT:    1876673  MISS:      62844
cpu0_L1I RFO       ACCESS:          0  HIT:          0  MISS:          0
cpu0_L1I PREFETCH  ACCESS:          0  HIT:          0  MISS:          0
cpu0_L1I WRITEBACK ACCESS:          0  HIT:          0  MISS:          0
cpu0_L1I TRANSLATION ACCESS:          0  HIT:          0  MISS:          0
cpu0_L1I PREFETCH  REQUESTED:          0  ISSUED:          0  USEFUL:          0  USELESS:          0
cpu0_L1I AVERAGE MISS LATENCY: 49.4234 cycles
cpu0_STLB TOTAL     ACCESS:    1456073  HIT:      23524  MISS:    1432549
cpu0_STLB LOAD      ACCESS:    1454511  HIT:      22779  MISS:    1431732
cpu0_STLB RFO       ACCESS:       1562  HIT:        745  MISS:        817
cpu0_STLB PREFETCH  ACCESS:          0  HIT:          0  MISS:          0
cpu0_STLB WRITEBACK ACCESS:          0  HIT:          0  MISS:          0
cpu0_STLB TRANSLATION ACCESS:          0  HIT:          0  MISS:          0
cpu0_STLB PREFETCH  REQUESTED:          0  ISSUED:          0  USEFUL:          0  USELESS:          0
cpu0_STLB AVERAGE MISS LATENCY: 8.30776 cycles
cpu0_L1D TOTAL     ACCESS:   12768660  HIT:   10278760  MISS:    2489900
cpu0_L1D LOAD      ACCESS:    7423989  HIT:    4972784  MISS:    2451205
cpu0_L1D RFO       ACCESS:    4650673  HIT:    4612965  MISS:      37708
cpu0_L1D PREFETCH  ACCESS:          0  HIT:          0  MISS:          0
cpu0_L1D WRITEBACK ACCESS:          0  HIT:          0  MISS:          0
cpu0_L1D TRANSLATION ACCESS:     693998  HIT:     693011  MISS:        987
cpu0_L1D PREFETCH  REQUESTED:          0  ISSUED:          0  USEFUL:          0  USELESS:          0
cpu0_L1D AVERAGE MISS LATENCY: 94.02 cycles
cpu0_L2C TOTAL     ACCESS:    2633691  HIT:     114314  MISS:    2519377
cpu0_L2C LOAD      ACCESS:    2514048  HIT:      32381  MISS:    2481667
cpu0_L2C RFO       ACCESS:      37708  HIT:        794  MISS:      36914
cpu0_L2C PREFETCH  ACCESS:          0  HIT:          0  MISS:          0
cpu0_L2C WRITEBACK ACCESS:      80948  HIT:      80948  MISS:          0
cpu0_L2C TRANSLATION ACCESS:        987  HIT:        191  MISS:        796
cpu0_L2C PREFETCH  REQUESTED:          0  ISSUED:          0  USEFUL:          0  USELESS:          0
cpu0_L2C AVERAGE MISS LATENCY: 82.4661 cycles
LLC TOTAL     ACCESS:    2598918  HIT:    2079105  MISS:     519813
LLC LOAD      ACCESS:    2481667  HIT:    1987964  MISS:     493703
LLC RFO       ACCESS:      36914  HIT:      16909  MISS:      20005
LLC PREFETCH  ACCESS:          0  HIT:          0  MISS:          0
LLC WRITEBACK ACCESS:      79541  HIT:      73644  MISS:       5897
LLC TRANSLATION ACCESS:        796  HIT:        588  MISS:        208
LLC PREFETCH  REQUESTED:          0  ISSUED:          0  USEFUL:          0  USELESS:          0
LLC AVERAGE MISS LATENCY: 297.846 cycles
OPTgen accesses: 44262
OPTgen hits: 39313
OPTgen hit rate: 88.8189



DRAM Statistics
 CHANNEL 0
 RQ ROW_BUFFER_HIT:      24153  ROW_BUFFER_MISS:     486224
 DBUS AVG_CONGESTED_CYCLE:    3.94881
 WQ ROW_BUFFER_HIT:       6459  ROW_BUFFER_MISS:      46447  FULL:          0


CPU 0 Branch Prediction Accuracy: 97.4293% MPKI: 8.26178 Average ROB Occupancy at Mispredict: 57.0658
Branch type MPKI
BRANCH_DIRECT_JUMP: 0.00037
BRANCH_INDIRECT: 0.12485
BRANCH_CONDITIONAL: 8.10493
BRANCH_DIRECT_CALL: 0.00326
BRANCH_INDIRECT_CALL: 0.00558
BRANCH_RETURN: 0.02279

