
*** ChampSim Multicore Out-of-Order Simulator ***

Warmup Instructions: 10000000
Simulation Instructions: 100000000
Number of CPUs: 1
Off-chip DRAM Size: 4 GiB Channels: 1 Width: 64-bit Data Rate: 3200 MT/s

VirtualMemory physical capacity: 8588881920 num_ppages: 2096895
VirtualMemory page size: 4096 log2_page_size: 12

CPU 0 runs /datasets/cs240c-wi22-a00-public/data/Assignment2/soplex_205B.trace.xz
CPU 0 Bimodal branch predictor
Basic BTB sets: 1024 ways: 8 indirect buffer size: 4096 RAS size: 64
Initialize Hawkeye state
Heartbeat CPU 0 instructions: 10000000 cycles: 2865173 heartbeat IPC: 3.49019 cumulative IPC: 3.49019 (Simulation time: 0 hr 0 min 36 sec) 

Warmup complete CPU 0 instructions: 10000004 cycles: 2865174 (Simulation time: 0 hr 0 min 36 sec) 

Heartbeat CPU 0 instructions: 20000004 cycles: 46782344 heartbeat IPC: 0.227701 cumulative IPC: 0.227701 (Simulation time: 0 hr 3 min 41 sec) 
Heartbeat CPU 0 instructions: 30000004 cycles: 82331344 heartbeat IPC: 0.281302 cumulative IPC: 0.251679 (Simulation time: 0 hr 5 min 20 sec) 
Heartbeat CPU 0 instructions: 40000004 cycles: 110208017 heartbeat IPC: 0.358723 cumulative IPC: 0.279478 (Simulation time: 0 hr 7 min 4 sec) 
Heartbeat CPU 0 instructions: 50000001 cycles: 141666177 heartbeat IPC: 0.317882 cumulative IPC: 0.288182 (Simulation time: 0 hr 8 min 55 sec) 
Heartbeat CPU 0 instructions: 60000000 cycles: 168472266 heartbeat IPC: 0.37305 cumulative IPC: 0.301919 (Simulation time: 0 hr 10 min 33 sec) 
Heartbeat CPU 0 instructions: 70000000 cycles: 199128742 heartbeat IPC: 0.326195 cumulative IPC: 0.305711 (Simulation time: 0 hr 12 min 25 sec) 
Heartbeat CPU 0 instructions: 80000003 cycles: 226896543 heartbeat IPC: 0.360129 cumulative IPC: 0.312456 (Simulation time: 0 hr 13 min 57 sec) 
Heartbeat CPU 0 instructions: 90000000 cycles: 259652228 heartbeat IPC: 0.30529 cumulative IPC: 0.311542 (Simulation time: 0 hr 15 min 57 sec) 
Heartbeat CPU 0 instructions: 100000002 cycles: 286827032 heartbeat IPC: 0.367988 cumulative IPC: 0.316944 (Simulation time: 0 hr 17 min 33 sec) 
Heartbeat CPU 0 instructions: 110000000 cycles: 341184660 heartbeat IPC: 0.183967 cumulative IPC: 0.295579 (Simulation time: 0 hr 20 min 31 sec) 
Finished CPU 0 instructions: 100000001 cycles: 338319487 cumulative IPC: 0.295579 (Simulation time: 0 hr 20 min 31 sec) 

ChampSim completed all CPUs

Region of Interest Statistics

CPU 0 cumulative IPC: 0.295579 instructions: 100000001 cycles: 338319487
cpu0_DTLB TOTAL     ACCESS:   22254505  HIT:   21292171  MISS:     962334
cpu0_DTLB LOAD      ACCESS:   16519255  HIT:   15779980  MISS:     739275
cpu0_DTLB RFO       ACCESS:    5735250  HIT:    5512191  MISS:     223059
cpu0_DTLB PREFETCH  ACCESS:          0  HIT:          0  MISS:          0
cpu0_DTLB WRITEBACK ACCESS:          0  HIT:          0  MISS:          0
cpu0_DTLB TRANSLATION ACCESS:          0  HIT:          0  MISS:          0
cpu0_DTLB PREFETCH  REQUESTED:          0  ISSUED:          0  USEFUL:          0  USELESS:          0
cpu0_DTLB AVERAGE MISS LATENCY: 16.4405 cycles
cpu0_ITLB TOTAL     ACCESS:    8007343  HIT:    8007326  MISS:         17
cpu0_ITLB LOAD      ACCESS:    8007343  HIT:    8007326  MISS:         17
cpu0_ITLB RFO       ACCESS:          0  HIT:          0  MISS:          0
cpu0_ITLB PREFETCH  ACCESS:          0  HIT:          0  MISS:          0
cpu0_ITLB WRITEBACK ACCESS:          0  HIT:          0  MISS:          0
cpu0_ITLB TRANSLATION ACCESS:          0  HIT:          0  MISS:          0
cpu0_ITLB PREFETCH  REQUESTED:          0  ISSUED:          0  USEFUL:          0  USELESS:          0
cpu0_ITLB AVERAGE MISS LATENCY: 383.059 cycles
cpu0_L1I TOTAL     ACCESS:     823226  HIT:     822453  MISS:        773
cpu0_L1I LOAD      ACCESS:     823226  HIT:     822453  MISS:        773
cpu0_L1I RFO       ACCESS:          0  HIT:          0  MISS:          0
cpu0_L1I PREFETCH  ACCESS:          0  HIT:          0  MISS:          0
cpu0_L1I WRITEBACK ACCESS:          0  HIT:          0  MISS:          0
cpu0_L1I TRANSLATION ACCESS:          0  HIT:          0  MISS:          0
cpu0_L1I PREFETCH  REQUESTED:          0  ISSUED:          0  USEFUL:          0  USELESS:          0
cpu0_L1I AVERAGE MISS LATENCY: 336.78 cycles
cpu0_STLB TOTAL     ACCESS:     962351  HIT:     806789  MISS:     155562
cpu0_STLB LOAD      ACCESS:     739292  HIT:     594553  MISS:     144739
cpu0_STLB RFO       ACCESS:     223059  HIT:     212236  MISS:      10823
cpu0_STLB PREFETCH  ACCESS:          0  HIT:          0  MISS:          0
cpu0_STLB WRITEBACK ACCESS:          0  HIT:          0  MISS:          0
cpu0_STLB TRANSLATION ACCESS:          0  HIT:          0  MISS:          0
cpu0_STLB PREFETCH  REQUESTED:          0  ISSUED:          0  USEFUL:          0  USELESS:          0
cpu0_STLB AVERAGE MISS LATENCY: 45.1383 cycles
cpu0_L1D TOTAL     ACCESS:   19240026  HIT:   13449421  MISS:    5790605
cpu0_L1D LOAD      ACCESS:   12673941  HIT:    7839315  MISS:    4834626
cpu0_L1D RFO       ACCESS:    6414489  HIT:    5464149  MISS:     950340
cpu0_L1D PREFETCH  ACCESS:          0  HIT:          0  MISS:          0
cpu0_L1D WRITEBACK ACCESS:          0  HIT:          0  MISS:          0
cpu0_L1D TRANSLATION ACCESS:     151596  HIT:     145957  MISS:       5639
cpu0_L1D PREFETCH  REQUESTED:          0  ISSUED:          0  USEFUL:          0  USELESS:          0
cpu0_L1D AVERAGE MISS LATENCY: 226.691 cycles
cpu0_L2C TOTAL     ACCESS:    8360975  HIT:    3854981  MISS:    4505994
cpu0_L2C LOAD      ACCESS:    4834995  HIT:    1131239  MISS:    3703756
cpu0_L2C RFO       ACCESS:     950273  HIT:     148925  MISS:     801348
cpu0_L2C PREFETCH  ACCESS:          0  HIT:          0  MISS:          0
cpu0_L2C WRITEBACK ACCESS:    2570068  HIT:    2569996  MISS:         72
cpu0_L2C TRANSLATION ACCESS:       5639  HIT:       4821  MISS:        818
cpu0_L2C PREFETCH  REQUESTED:          0  ISSUED:          0  USEFUL:          0  USELESS:          0
cpu0_L2C AVERAGE MISS LATENCY: 277.026 cycles
LLC TOTAL     ACCESS:    6406250  HIT:    3196447  MISS:    3209803
LLC LOAD      ACCESS:    3703734  HIT:    1434772  MISS:    2268962
LLC RFO       ACCESS:     801343  HIT:     291979  MISS:     509364
LLC PREFETCH  ACCESS:          0  HIT:          0  MISS:          0
LLC WRITEBACK ACCESS:    1900355  HIT:    1469314  MISS:     431041
LLC TRANSLATION ACCESS:        818  HIT:        382  MISS:        436
LLC PREFETCH  REQUESTED:          0  ISSUED:          0  USEFUL:          0  USELESS:          0
LLC AVERAGE MISS LATENCY: 358.871 cycles
OPTgen accesses: 77390
OPTgen hits: 37483
OPTgen hit rate: 48.4339



DRAM Statistics
 CHANNEL 0
 RQ ROW_BUFFER_HIT:     287340  ROW_BUFFER_MISS:    2489079
 DBUS AVG_CONGESTED_CYCLE:    3.95711
 WQ ROW_BUFFER_HIT:      46356  ROW_BUFFER_MISS:    1007853  FULL:     585224


CPU 0 Branch Prediction Accuracy: 93.3985% MPKI: 13.5305 Average ROB Occupancy at Mispredict: 47.75
Branch type MPKI
BRANCH_DIRECT_JUMP: 0.00081
BRANCH_INDIRECT: 0.00022
BRANCH_CONDITIONAL: 13.5274
BRANCH_DIRECT_CALL: 0.00058
BRANCH_INDIRECT_CALL: 0.00056
BRANCH_RETURN: 0.00094

