
*** ChampSim Multicore Out-of-Order Simulator ***

Warmup Instructions: 10000000
Simulation Instructions: 100000000
Number of CPUs: 1
Off-chip DRAM Size: 4 GiB Channels: 1 Width: 64-bit Data Rate: 3200 MT/s

VirtualMemory physical capacity: 8588881920 num_ppages: 2096895
VirtualMemory page size: 4096 log2_page_size: 12

CPU 0 runs /datasets/cs240c-wi22-a00-public/data/Assignment2/soplex_66B.trace.xz
CPU 0 Bimodal branch predictor
Basic BTB sets: 1024 ways: 8 indirect buffer size: 4096 RAS size: 64
Initialize Hawkeye state
Heartbeat CPU 0 instructions: 10000001 cycles: 2688394 heartbeat IPC: 3.71969 cumulative IPC: 3.71969 (Simulation time: 0 hr 0 min 32 sec) 

Warmup complete CPU 0 instructions: 10000001 cycles: 2688394 (Simulation time: 0 hr 0 min 32 sec) 

Heartbeat CPU 0 instructions: 20000003 cycles: 27143872 heartbeat IPC: 0.408906 cumulative IPC: 0.408906 (Simulation time: 0 hr 1 min 55 sec) 
Heartbeat CPU 0 instructions: 30000001 cycles: 52784494 heartbeat IPC: 0.390006 cumulative IPC: 0.399233 (Simulation time: 0 hr 3 min 25 sec) 
Heartbeat CPU 0 instructions: 40000002 cycles: 78181832 heartbeat IPC: 0.393742 cumulative IPC: 0.397386 (Simulation time: 0 hr 4 min 50 sec) 
Heartbeat CPU 0 instructions: 50000002 cycles: 113257482 heartbeat IPC: 0.285098 cumulative IPC: 0.361765 (Simulation time: 0 hr 7 min 4 sec) 
Heartbeat CPU 0 instructions: 60000002 cycles: 147062022 heartbeat IPC: 0.295818 cumulative IPC: 0.346324 (Simulation time: 0 hr 9 min 5 sec) 
Heartbeat CPU 0 instructions: 70000001 cycles: 174677334 heartbeat IPC: 0.362118 cumulative IPC: 0.34886 (Simulation time: 0 hr 10 min 40 sec) 
Heartbeat CPU 0 instructions: 80000001 cycles: 202441041 heartbeat IPC: 0.360182 cumulative IPC: 0.350433 (Simulation time: 0 hr 12 min 23 sec) 
Heartbeat CPU 0 instructions: 90000003 cycles: 227480475 heartbeat IPC: 0.39937 cumulative IPC: 0.355884 (Simulation time: 0 hr 13 min 50 sec) 
Heartbeat CPU 0 instructions: 100000000 cycles: 253244816 heartbeat IPC: 0.388133 cumulative IPC: 0.359201 (Simulation time: 0 hr 15 min 17 sec) 
Heartbeat CPU 0 instructions: 110000001 cycles: 278987708 heartbeat IPC: 0.388457 cumulative IPC: 0.361926 (Simulation time: 0 hr 16 min 46 sec) 
Finished CPU 0 instructions: 100000000 cycles: 276299314 cumulative IPC: 0.361926 (Simulation time: 0 hr 16 min 46 sec) 

ChampSim completed all CPUs

Region of Interest Statistics

CPU 0 cumulative IPC: 0.361926 instructions: 100000000 cycles: 276299314
cpu0_DTLB TOTAL     ACCESS:   19888604  HIT:   19311086  MISS:     577518
cpu0_DTLB LOAD      ACCESS:   14826567  HIT:   14369326  MISS:     457241
cpu0_DTLB RFO       ACCESS:    5062037  HIT:    4941760  MISS:     120277
cpu0_DTLB PREFETCH  ACCESS:          0  HIT:          0  MISS:          0
cpu0_DTLB WRITEBACK ACCESS:          0  HIT:          0  MISS:          0
cpu0_DTLB TRANSLATION ACCESS:          0  HIT:          0  MISS:          0
cpu0_DTLB PREFETCH  REQUESTED:          0  ISSUED:          0  USEFUL:          0  USELESS:          0
cpu0_DTLB AVERAGE MISS LATENCY: 17.063 cycles
cpu0_ITLB TOTAL     ACCESS:    8277511  HIT:    8277493  MISS:         18
cpu0_ITLB LOAD      ACCESS:    8277511  HIT:    8277493  MISS:         18
cpu0_ITLB RFO       ACCESS:          0  HIT:          0  MISS:          0
cpu0_ITLB PREFETCH  ACCESS:          0  HIT:          0  MISS:          0
cpu0_ITLB WRITEBACK ACCESS:          0  HIT:          0  MISS:          0
cpu0_ITLB TRANSLATION ACCESS:          0  HIT:          0  MISS:          0
cpu0_ITLB PREFETCH  REQUESTED:          0  ISSUED:          0  USEFUL:          0  USELESS:          0
cpu0_ITLB AVERAGE MISS LATENCY: 383.778 cycles
cpu0_L1I TOTAL     ACCESS:    1902046  HIT:    1901186  MISS:        860
cpu0_L1I LOAD      ACCESS:    1902046  HIT:    1901186  MISS:        860
cpu0_L1I RFO       ACCESS:          0  HIT:          0  MISS:          0
cpu0_L1I PREFETCH  ACCESS:          0  HIT:          0  MISS:          0
cpu0_L1I WRITEBACK ACCESS:          0  HIT:          0  MISS:          0
cpu0_L1I TRANSLATION ACCESS:          0  HIT:          0  MISS:          0
cpu0_L1I PREFETCH  REQUESTED:          0  ISSUED:          0  USEFUL:          0  USELESS:          0
cpu0_L1I AVERAGE MISS LATENCY: 266.187 cycles
cpu0_STLB TOTAL     ACCESS:     577536  HIT:     474615  MISS:     102921
cpu0_STLB LOAD      ACCESS:     457259  HIT:     362180  MISS:      95079
cpu0_STLB RFO       ACCESS:     120277  HIT:     112435  MISS:       7842
cpu0_STLB PREFETCH  ACCESS:          0  HIT:          0  MISS:          0
cpu0_STLB WRITEBACK ACCESS:          0  HIT:          0  MISS:          0
cpu0_STLB TRANSLATION ACCESS:          0  HIT:          0  MISS:          0
cpu0_STLB PREFETCH  REQUESTED:          0  ISSUED:          0  USEFUL:          0  USELESS:          0
cpu0_STLB AVERAGE MISS LATENCY: 44.7224 cycles
cpu0_L1D TOTAL     ACCESS:   17123435  HIT:   12806400  MISS:    4317035
cpu0_L1D LOAD      ACCESS:   11120835  HIT:    7522530  MISS:    3598305
cpu0_L1D RFO       ACCESS:    5902552  HIT:    5186465  MISS:     716087
cpu0_L1D PREFETCH  ACCESS:          0  HIT:          0  MISS:          0
cpu0_L1D WRITEBACK ACCESS:          0  HIT:          0  MISS:          0
cpu0_L1D TRANSLATION ACCESS:     100048  HIT:      97405  MISS:       2643
cpu0_L1D PREFETCH  REQUESTED:          0  ISSUED:          0  USEFUL:          0  USELESS:          0
cpu0_L1D AVERAGE MISS LATENCY: 225.939 cycles
cpu0_L2C TOTAL     ACCESS:    6105352  HIT:    2608057  MISS:    3497295
cpu0_L2C LOAD      ACCESS:    3599029  HIT:     717364  MISS:    2881665
cpu0_L2C RFO       ACCESS:     716014  HIT:     101648  MISS:     614366
cpu0_L2C PREFETCH  ACCESS:          0  HIT:          0  MISS:          0
cpu0_L2C WRITEBACK ACCESS:    1787666  HIT:    1787126  MISS:        540
cpu0_L2C TRANSLATION ACCESS:       2643  HIT:       1919  MISS:        724
cpu0_L2C PREFETCH  REQUESTED:          0  ISSUED:          0  USEFUL:          0  USELESS:          0
cpu0_L2C AVERAGE MISS LATENCY: 265.196 cycles
LLC TOTAL     ACCESS:    4876866  HIT:    2368977  MISS:    2507889
LLC LOAD      ACCESS:    2881649  HIT:    1184644  MISS:    1697005
LLC RFO       ACCESS:     614365  HIT:     234504  MISS:     379861
LLC PREFETCH  ACCESS:          0  HIT:          0  MISS:          0
LLC WRITEBACK ACCESS:    1380128  HIT:     949465  MISS:     430663
LLC TRANSLATION ACCESS:        724  HIT:        364  MISS:        360
LLC PREFETCH  REQUESTED:          0  ISSUED:          0  USEFUL:          0  USELESS:          0
LLC AVERAGE MISS LATENCY: 339.327 cycles
OPTgen accesses: 59977
OPTgen hits: 29766
OPTgen hit rate: 49.629



DRAM Statistics
 CHANNEL 0
 RQ ROW_BUFFER_HIT:     302939  ROW_BUFFER_MISS:    1772719
 DBUS AVG_CONGESTED_CYCLE:    3.95535
 WQ ROW_BUFFER_HIT:      64138  ROW_BUFFER_MISS:     777042  FULL:     784017


CPU 0 Branch Prediction Accuracy: 91.9788% MPKI: 17.5693 Average ROB Occupancy at Mispredict: 27.6441
Branch type MPKI
BRANCH_DIRECT_JUMP: 0.00093
BRANCH_INDIRECT: 0.00028
BRANCH_CONDITIONAL: 17.5659
BRANCH_DIRECT_CALL: 0.00064
BRANCH_INDIRECT_CALL: 0.00043
BRANCH_RETURN: 0.00108

