
*** ChampSim Multicore Out-of-Order Simulator ***

Warmup Instructions: 10000000
Simulation Instructions: 100000000
Number of CPUs: 1
Off-chip DRAM Size: 4 GiB Channels: 1 Width: 64-bit Data Rate: 3200 MT/s

VirtualMemory physical capacity: 8588881920 num_ppages: 2096895
VirtualMemory page size: 4096 log2_page_size: 12

CPU 0 runs /datasets/cs240c-wi22-a00-public/data/Assignment2/perlbench_135B.trace.xz
CPU 0 Bimodal branch predictor
Basic BTB sets: 1024 ways: 8 indirect buffer size: 4096 RAS size: 64
Initialize Hawkeye state
Heartbeat CPU 0 instructions: 10000000 cycles: 2501133 heartbeat IPC: 3.99819 cumulative IPC: 3.99819 (Simulation time: 0 hr 0 min 27 sec) 

Warmup complete CPU 0 instructions: 10000004 cycles: 2501134 (Simulation time: 0 hr 0 min 27 sec) 

Heartbeat CPU 0 instructions: 20000003 cycles: 16331466 heartbeat IPC: 0.723049 cumulative IPC: 0.723048 (Simulation time: 0 hr 1 min 8 sec) 
Heartbeat CPU 0 instructions: 30000004 cycles: 29092726 heartbeat IPC: 0.783622 cumulative IPC: 0.752117 (Simulation time: 0 hr 1 min 47 sec) 
Heartbeat CPU 0 instructions: 40000001 cycles: 40536048 heartbeat IPC: 0.873872 cumulative IPC: 0.788749 (Simulation time: 0 hr 2 min 25 sec) 
Heartbeat CPU 0 instructions: 50000000 cycles: 53154780 heartbeat IPC: 0.792473 cumulative IPC: 0.789677 (Simulation time: 0 hr 3 min 5 sec) 
Heartbeat CPU 0 instructions: 60000000 cycles: 64719245 heartbeat IPC: 0.864718 cumulative IPC: 0.803624 (Simulation time: 0 hr 3 min 43 sec) 
Heartbeat CPU 0 instructions: 70000001 cycles: 77647340 heartbeat IPC: 0.773509 cumulative IPC: 0.798443 (Simulation time: 0 hr 4 min 22 sec) 
Heartbeat CPU 0 instructions: 80000000 cycles: 88584847 heartbeat IPC: 0.914285 cumulative IPC: 0.813162 (Simulation time: 0 hr 4 min 57 sec) 
Heartbeat CPU 0 instructions: 90000004 cycles: 99459631 heartbeat IPC: 0.919559 cumulative IPC: 0.825095 (Simulation time: 0 hr 5 min 32 sec) 
Heartbeat CPU 0 instructions: 100000000 cycles: 112996783 heartbeat IPC: 0.738708 cumulative IPC: 0.814512 (Simulation time: 0 hr 6 min 12 sec) 
Heartbeat CPU 0 instructions: 110000000 cycles: 126288295 heartbeat IPC: 0.75236 cumulative IPC: 0.807838 (Simulation time: 0 hr 6 min 52 sec) 
Finished CPU 0 instructions: 100000000 cycles: 123787163 cumulative IPC: 0.807838 (Simulation time: 0 hr 6 min 52 sec) 

ChampSim completed all CPUs

Region of Interest Statistics

CPU 0 cumulative IPC: 0.807838 instructions: 100000000 cycles: 123787163
cpu0_DTLB TOTAL     ACCESS:   24834121  HIT:   24177373  MISS:     656748
cpu0_DTLB LOAD      ACCESS:   16163505  HIT:   15592064  MISS:     571441
cpu0_DTLB RFO       ACCESS:    8670616  HIT:    8585309  MISS:      85307
cpu0_DTLB PREFETCH  ACCESS:          0  HIT:          0  MISS:          0
cpu0_DTLB WRITEBACK ACCESS:          0  HIT:          0  MISS:          0
cpu0_DTLB TRANSLATION ACCESS:          0  HIT:          0  MISS:          0
cpu0_DTLB PREFETCH  REQUESTED:          0  ISSUED:          0  USEFUL:          0  USELESS:          0
cpu0_DTLB AVERAGE MISS LATENCY: 9.30613 cycles
cpu0_ITLB TOTAL     ACCESS:    8520283  HIT:    8442119  MISS:      78164
cpu0_ITLB LOAD      ACCESS:    8520283  HIT:    8442119  MISS:      78164
cpu0_ITLB RFO       ACCESS:          0  HIT:          0  MISS:          0
cpu0_ITLB PREFETCH  ACCESS:          0  HIT:          0  MISS:          0
cpu0_ITLB WRITEBACK ACCESS:          0  HIT:          0  MISS:          0
cpu0_ITLB TRANSLATION ACCESS:          0  HIT:          0  MISS:          0
cpu0_ITLB PREFETCH  REQUESTED:          0  ISSUED:          0  USEFUL:          0  USELESS:          0
cpu0_ITLB AVERAGE MISS LATENCY: 9.11647 cycles
cpu0_L1I TOTAL     ACCESS:    9977240  HIT:    9296923  MISS:     680317
cpu0_L1I LOAD      ACCESS:    9977240  HIT:    9296923  MISS:     680317
cpu0_L1I RFO       ACCESS:          0  HIT:          0  MISS:          0
cpu0_L1I PREFETCH  ACCESS:          0  HIT:          0  MISS:          0
cpu0_L1I WRITEBACK ACCESS:          0  HIT:          0  MISS:          0
cpu0_L1I TRANSLATION ACCESS:          0  HIT:          0  MISS:          0
cpu0_L1I PREFETCH  REQUESTED:          0  ISSUED:          0  USEFUL:          0  USELESS:          0
cpu0_L1I AVERAGE MISS LATENCY: 12.1195 cycles
cpu0_STLB TOTAL     ACCESS:     734912  HIT:     726459  MISS:       8453
cpu0_STLB LOAD      ACCESS:     649605  HIT:     642242  MISS:       7363
cpu0_STLB RFO       ACCESS:      85307  HIT:      84217  MISS:       1090
cpu0_STLB PREFETCH  ACCESS:          0  HIT:          0  MISS:          0
cpu0_STLB WRITEBACK ACCESS:          0  HIT:          0  MISS:          0
cpu0_STLB TRANSLATION ACCESS:          0  HIT:          0  MISS:          0
cpu0_STLB PREFETCH  REQUESTED:          0  ISSUED:          0  USEFUL:          0  USELESS:          0
cpu0_STLB AVERAGE MISS LATENCY: 24.3756 cycles
cpu0_L1D TOTAL     ACCESS:   32040483  HIT:   31087689  MISS:     952794
cpu0_L1D LOAD      ACCESS:   16947378  HIT:   16082926  MISS:     864452
cpu0_L1D RFO       ACCESS:   15084690  HIT:   14997910  MISS:      86780
cpu0_L1D PREFETCH  ACCESS:          0  HIT:          0  MISS:          0
cpu0_L1D WRITEBACK ACCESS:          0  HIT:          0  MISS:          0
cpu0_L1D TRANSLATION ACCESS:       8415  HIT:       6853  MISS:       1562
cpu0_L1D PREFETCH  REQUESTED:          0  ISSUED:          0  USEFUL:          0  USELESS:          0
cpu0_L1D AVERAGE MISS LATENCY: 17.5569 cycles
cpu0_L2C TOTAL     ACCESS:    1889423  HIT:    1714343  MISS:     175080
cpu0_L2C LOAD      ACCESS:    1544755  HIT:    1392630  MISS:     152125
cpu0_L2C RFO       ACCESS:      86773  HIT:      64518  MISS:      22255
cpu0_L2C PREFETCH  ACCESS:          0  HIT:          0  MISS:          0
cpu0_L2C WRITEBACK ACCESS:     256333  HIT:     255863  MISS:        470
cpu0_L2C TRANSLATION ACCESS:       1562  HIT:       1332  MISS:        230
cpu0_L2C PREFETCH  REQUESTED:          0  ISSUED:          0  USEFUL:          0  USELESS:          0
cpu0_L2C AVERAGE MISS LATENCY: 39.88 cycles
LLC TOTAL     ACCESS:     226406  HIT:     203318  MISS:      23088
LLC LOAD      ACCESS:     152125  HIT:     133874  MISS:      18251
LLC RFO       ACCESS:      22255  HIT:      17746  MISS:       4509
LLC PREFETCH  ACCESS:          0  HIT:          0  MISS:          0
LLC WRITEBACK ACCESS:      51796  HIT:      51473  MISS:        323
LLC TRANSLATION ACCESS:        230  HIT:        225  MISS:          5
LLC PREFETCH  REQUESTED:          0  ISSUED:          0  USEFUL:          0  USELESS:          0
LLC AVERAGE MISS LATENCY: 143.596 cycles
OPTgen accesses: 3385
OPTgen hits: 2716
OPTgen hit rate: 80.2363



DRAM Statistics
 CHANNEL 0
 RQ ROW_BUFFER_HIT:       4880  ROW_BUFFER_MISS:      17885
 DBUS AVG_CONGESTED_CYCLE:    3.85607
 WQ ROW_BUFFER_HIT:       1174  ROW_BUFFER_MISS:       3115  FULL:          0


CPU 0 Branch Prediction Accuracy: 94.5426% MPKI: 12.0745 Average ROB Occupancy at Mispredict: 40.9014
Branch type MPKI
BRANCH_DIRECT_JUMP: 0.00217
BRANCH_INDIRECT: 0.80239
BRANCH_CONDITIONAL: 9.8183
BRANCH_DIRECT_CALL: 0.00216
BRANCH_INDIRECT_CALL: 1.42497
BRANCH_RETURN: 0.02455

