
*** ChampSim Multicore Out-of-Order Simulator ***

Warmup Instructions: 10000000
Simulation Instructions: 100000000
Number of CPUs: 1
Off-chip DRAM Size: 4 GiB Channels: 1 Width: 64-bit Data Rate: 3200 MT/s

VirtualMemory physical capacity: 8588881920 num_ppages: 2096895
VirtualMemory page size: 4096 log2_page_size: 12

CPU 0 runs /datasets/cs240c-wi22-a00-public/data/Assignment2/leslie3d_94B.trace.xz
CPU 0 Bimodal branch predictor
Basic BTB sets: 1024 ways: 8 indirect buffer size: 4096 RAS size: 64
Initialize SRRIP state
Heartbeat CPU 0 instructions: 10000002 cycles: 4308717 heartbeat IPC: 2.32088 cumulative IPC: 2.32088 (Simulation time: 0 hr 1 min 13 sec) 

Warmup complete CPU 0 instructions: 10000002 cycles: 4308717 (Simulation time: 0 hr 1 min 13 sec) 

Heartbeat CPU 0 instructions: 20000000 cycles: 35533097 heartbeat IPC: 0.320262 cumulative IPC: 0.320262 (Simulation time: 0 hr 4 min 29 sec) 
Heartbeat CPU 0 instructions: 30000001 cycles: 87481823 heartbeat IPC: 0.192498 cumulative IPC: 0.240462 (Simulation time: 0 hr 9 min 50 sec) 
Heartbeat CPU 0 instructions: 40000001 cycles: 97674843 heartbeat IPC: 0.981063 cumulative IPC: 0.321316 (Simulation time: 0 hr 11 min 40 sec) 
Heartbeat CPU 0 instructions: 50000002 cycles: 108039738 heartbeat IPC: 0.964795 cumulative IPC: 0.385613 (Simulation time: 0 hr 13 min 31 sec) 
Heartbeat CPU 0 instructions: 60000003 cycles: 118282968 heartbeat IPC: 0.976255 cumulative IPC: 0.438696 (Simulation time: 0 hr 15 min 20 sec) 
Heartbeat CPU 0 instructions: 70000001 cycles: 128493382 heartbeat IPC: 0.979392 cumulative IPC: 0.483151 (Simulation time: 0 hr 17 min 9 sec) 
Heartbeat CPU 0 instructions: 80000003 cycles: 142259961 heartbeat IPC: 0.726397 cumulative IPC: 0.507426 (Simulation time: 0 hr 19 min 16 sec) 
Heartbeat CPU 0 instructions: 90000004 cycles: 175918943 heartbeat IPC: 0.297098 cumulative IPC: 0.466173 (Simulation time: 0 hr 23 min 12 sec) 
Heartbeat CPU 0 instructions: 100000001 cycles: 231447192 heartbeat IPC: 0.180088 cumulative IPC: 0.396234 (Simulation time: 0 hr 29 min 37 sec) 
Heartbeat CPU 0 instructions: 110000004 cycles: 247752271 heartbeat IPC: 0.613306 cumulative IPC: 0.410773 (Simulation time: 0 hr 31 min 30 sec) 
Finished CPU 0 instructions: 100000002 cycles: 243443554 cumulative IPC: 0.410773 (Simulation time: 0 hr 31 min 30 sec) 

ChampSim completed all CPUs

Region of Interest Statistics

CPU 0 cumulative IPC: 0.410773 instructions: 100000002 cycles: 243443554
cpu0_DTLB TOTAL     ACCESS:   26738945  HIT:   26626296  MISS:     112649
cpu0_DTLB LOAD      ACCESS:   21501230  HIT:   21405490  MISS:      95740
cpu0_DTLB RFO       ACCESS:    5237715  HIT:    5220806  MISS:      16909
cpu0_DTLB PREFETCH  ACCESS:          0  HIT:          0  MISS:          0
cpu0_DTLB WRITEBACK ACCESS:          0  HIT:          0  MISS:          0
cpu0_DTLB TRANSLATION ACCESS:          0  HIT:          0  MISS:          0
cpu0_DTLB PREFETCH  REQUESTED:          0  ISSUED:          0  USEFUL:          0  USELESS:          0
cpu0_DTLB AVERAGE MISS LATENCY: 113.593 cycles
cpu0_ITLB TOTAL     ACCESS:    3124077  HIT:    3124020  MISS:         57
cpu0_ITLB LOAD      ACCESS:    3124077  HIT:    3124020  MISS:         57
cpu0_ITLB RFO       ACCESS:          0  HIT:          0  MISS:          0
cpu0_ITLB PREFETCH  ACCESS:          0  HIT:          0  MISS:          0
cpu0_ITLB WRITEBACK ACCESS:          0  HIT:          0  MISS:          0
cpu0_ITLB TRANSLATION ACCESS:          0  HIT:          0  MISS:          0
cpu0_ITLB PREFETCH  REQUESTED:          0  ISSUED:          0  USEFUL:          0  USELESS:          0
cpu0_ITLB AVERAGE MISS LATENCY: 222.053 cycles
cpu0_L1I TOTAL     ACCESS:    1637813  HIT:    1636741  MISS:       1072
cpu0_L1I LOAD      ACCESS:    1637813  HIT:    1636741  MISS:       1072
cpu0_L1I RFO       ACCESS:          0  HIT:          0  MISS:          0
cpu0_L1I PREFETCH  ACCESS:          0  HIT:          0  MISS:          0
cpu0_L1I WRITEBACK ACCESS:          0  HIT:          0  MISS:          0
cpu0_L1I TRANSLATION ACCESS:          0  HIT:          0  MISS:          0
cpu0_L1I PREFETCH  REQUESTED:          0  ISSUED:          0  USEFUL:          0  USELESS:          0
cpu0_L1I AVERAGE MISS LATENCY: 335.075 cycles
cpu0_STLB TOTAL     ACCESS:     112706  HIT:      63010  MISS:      49696
cpu0_STLB LOAD      ACCESS:      95797  HIT:      56434  MISS:      39363
cpu0_STLB RFO       ACCESS:      16909  HIT:       6576  MISS:      10333
cpu0_STLB PREFETCH  ACCESS:          0  HIT:          0  MISS:          0
cpu0_STLB WRITEBACK ACCESS:          0  HIT:          0  MISS:          0
cpu0_STLB TRANSLATION ACCESS:          0  HIT:          0  MISS:          0
cpu0_STLB PREFETCH  REQUESTED:          0  ISSUED:          0  USEFUL:          0  USELESS:          0
cpu0_STLB AVERAGE MISS LATENCY: 237.253 cycles
cpu0_L1D TOTAL     ACCESS:   22249920  HIT:   18214108  MISS:    4035812
cpu0_L1D LOAD      ACCESS:   13862842  HIT:   10774088  MISS:    3088754
cpu0_L1D RFO       ACCESS:    8344767  HIT:    7402625  MISS:     942142
cpu0_L1D PREFETCH  ACCESS:          0  HIT:          0  MISS:          0
cpu0_L1D WRITEBACK ACCESS:          0  HIT:          0  MISS:          0
cpu0_L1D TRANSLATION ACCESS:      42311  HIT:      37395  MISS:       4916
cpu0_L1D PREFETCH  REQUESTED:          0  ISSUED:          0  USEFUL:          0  USELESS:          0
cpu0_L1D AVERAGE MISS LATENCY: 662.937 cycles
cpu0_L2C TOTAL     ACCESS:    5248732  HIT:    2251729  MISS:    2997003
cpu0_L2C LOAD      ACCESS:    3089822  HIT:     791240  MISS:    2298582
cpu0_L2C RFO       ACCESS:     942048  HIT:     246199  MISS:     695849
cpu0_L2C PREFETCH  ACCESS:          0  HIT:          0  MISS:          0
cpu0_L2C WRITEBACK ACCESS:    1211946  HIT:    1209656  MISS:       2290
cpu0_L2C TRANSLATION ACCESS:       4916  HIT:       4634  MISS:        282
cpu0_L2C PREFETCH  REQUESTED:          0  ISSUED:          0  USEFUL:          0  USELESS:          0
cpu0_L2C AVERAGE MISS LATENCY: 877.955 cycles
LLC TOTAL     ACCESS:    3927561  HIT:     476505  MISS:    3451056
LLC LOAD      ACCESS:    2298579  HIT:     286831  MISS:    2011748
LLC RFO       ACCESS:     695840  HIT:      44790  MISS:     651050
LLC PREFETCH  ACCESS:          0  HIT:          0  MISS:          0
LLC WRITEBACK ACCESS:     932860  HIT:     144754  MISS:     788106
LLC TRANSLATION ACCESS:        282  HIT:        130  MISS:        152
LLC PREFETCH  REQUESTED:          0  ISSUED:          0  USEFUL:          0  USELESS:          0
LLC AVERAGE MISS LATENCY: 744.186 cycles
Insertion Distribution: 
	LOAD 86438 0 0 0 158943 1931096 
	RFO 186 0 0 0 55304 598038 
	PREF 0 0 0 0 0 0 
	WRITEBACK 0 0 0 0 0 806634 
	 3 0 0 0 42 122 
Total Prefetch Downgrades: 0

DRAM Statistics
 CHANNEL 0
 RQ ROW_BUFFER_HIT:     169212  ROW_BUFFER_MISS:    2493466
 DBUS AVG_CONGESTED_CYCLE:    3.97765
 WQ ROW_BUFFER_HIT:      51072  ROW_BUFFER_MISS:     808625  FULL:      12992


CPU 0 Branch Prediction Accuracy: 96.9231% MPKI: 1.73686 Average ROB Occupancy at Mispredict: 310.72
Branch type MPKI
BRANCH_DIRECT_JUMP: 0.00082
BRANCH_INDIRECT: 0.00014
BRANCH_CONDITIONAL: 1.73229
BRANCH_DIRECT_CALL: 0.00185
BRANCH_INDIRECT_CALL: 3e-05
BRANCH_RETURN: 0.00173

