
*** ChampSim Multicore Out-of-Order Simulator ***

Warmup Instructions: 10000000
Simulation Instructions: 100000000
Number of CPUs: 1
Off-chip DRAM Size: 4 GiB Channels: 1 Width: 64-bit Data Rate: 3200 MT/s

VirtualMemory physical capacity: 8588881920 num_ppages: 2096895
VirtualMemory page size: 4096 log2_page_size: 12

CPU 0 runs /datasets/cs240c-wi22-a00-public/data/Assignment2/milc_409B.trace.xz
CPU 0 Bimodal branch predictor
Basic BTB sets: 1024 ways: 8 indirect buffer size: 4096 RAS size: 64
Initialize SRRIP state
Heartbeat CPU 0 instructions: 10000000 cycles: 3019991 heartbeat IPC: 3.31127 cumulative IPC: 3.31127 (Simulation time: 0 hr 0 min 48 sec) 

Warmup complete CPU 0 instructions: 10000004 cycles: 3019992 (Simulation time: 0 hr 0 min 48 sec) 

Heartbeat CPU 0 instructions: 20000002 cycles: 19727716 heartbeat IPC: 0.598526 cumulative IPC: 0.598525 (Simulation time: 0 hr 2 min 46 sec) 
Heartbeat CPU 0 instructions: 30000001 cycles: 36373611 heartbeat IPC: 0.600749 cumulative IPC: 0.599635 (Simulation time: 0 hr 4 min 43 sec) 
Heartbeat CPU 0 instructions: 40000004 cycles: 52946743 heartbeat IPC: 0.603386 cumulative IPC: 0.60088 (Simulation time: 0 hr 6 min 40 sec) 
Heartbeat CPU 0 instructions: 50000000 cycles: 69554006 heartbeat IPC: 0.602146 cumulative IPC: 0.601196 (Simulation time: 0 hr 8 min 36 sec) 
Heartbeat CPU 0 instructions: 60000004 cycles: 91225399 heartbeat IPC: 0.461438 cumulative IPC: 0.566859 (Simulation time: 0 hr 11 min 14 sec) 
Heartbeat CPU 0 instructions: 70000003 cycles: 106957003 heartbeat IPC: 0.635663 cumulative IPC: 0.577273 (Simulation time: 0 hr 13 min 0 sec) 
Heartbeat CPU 0 instructions: 80000002 cycles: 122987537 heartbeat IPC: 0.623809 cumulative IPC: 0.583491 (Simulation time: 0 hr 14 min 44 sec) 
Heartbeat CPU 0 instructions: 90000001 cycles: 138932764 heartbeat IPC: 0.627147 cumulative IPC: 0.588613 (Simulation time: 0 hr 16 min 31 sec) 
Heartbeat CPU 0 instructions: 100000001 cycles: 154918903 heartbeat IPC: 0.625542 cumulative IPC: 0.592499 (Simulation time: 0 hr 18 min 18 sec) 
Heartbeat CPU 0 instructions: 110000003 cycles: 175642829 heartbeat IPC: 0.482534 cumulative IPC: 0.579298 (Simulation time: 0 hr 21 min 31 sec) 
Finished CPU 0 instructions: 100000004 cycles: 172622838 cumulative IPC: 0.579298 (Simulation time: 0 hr 21 min 31 sec) 

ChampSim completed all CPUs

Region of Interest Statistics

CPU 0 cumulative IPC: 0.579298 instructions: 100000004 cycles: 172622838
cpu0_DTLB TOTAL     ACCESS:   14826281  HIT:   14651115  MISS:     175166
cpu0_DTLB LOAD      ACCESS:    7379511  HIT:    7206486  MISS:     173025
cpu0_DTLB RFO       ACCESS:    7446770  HIT:    7444629  MISS:       2141
cpu0_DTLB PREFETCH  ACCESS:          0  HIT:          0  MISS:          0
cpu0_DTLB WRITEBACK ACCESS:          0  HIT:          0  MISS:          0
cpu0_DTLB TRANSLATION ACCESS:          0  HIT:          0  MISS:          0
cpu0_DTLB PREFETCH  REQUESTED:          0  ISSUED:          0  USEFUL:          0  USELESS:          0
cpu0_DTLB AVERAGE MISS LATENCY: 105.452 cycles
cpu0_ITLB TOTAL     ACCESS:    2820519  HIT:    2820515  MISS:          4
cpu0_ITLB LOAD      ACCESS:    2820519  HIT:    2820515  MISS:          4
cpu0_ITLB RFO       ACCESS:          0  HIT:          0  MISS:          0
cpu0_ITLB PREFETCH  ACCESS:          0  HIT:          0  MISS:          0
cpu0_ITLB WRITEBACK ACCESS:          0  HIT:          0  MISS:          0
cpu0_ITLB TRANSLATION ACCESS:          0  HIT:          0  MISS:          0
cpu0_ITLB PREFETCH  REQUESTED:          0  ISSUED:          0  USEFUL:          0  USELESS:          0
cpu0_ITLB AVERAGE MISS LATENCY: 265.75 cycles
cpu0_L1I TOTAL     ACCESS:    7042946  HIT:    7042895  MISS:         51
cpu0_L1I LOAD      ACCESS:    7042946  HIT:    7042895  MISS:         51
cpu0_L1I RFO       ACCESS:          0  HIT:          0  MISS:          0
cpu0_L1I PREFETCH  ACCESS:          0  HIT:          0  MISS:          0
cpu0_L1I WRITEBACK ACCESS:          0  HIT:          0  MISS:          0
cpu0_L1I TRANSLATION ACCESS:          0  HIT:          0  MISS:          0
cpu0_L1I PREFETCH  REQUESTED:          0  ISSUED:          0  USEFUL:          0  USELESS:          0
cpu0_L1I AVERAGE MISS LATENCY: 201.314 cycles
cpu0_STLB TOTAL     ACCESS:     175170  HIT:          0  MISS:     175170
cpu0_STLB LOAD      ACCESS:     173029  HIT:          0  MISS:     173029
cpu0_STLB RFO       ACCESS:       2141  HIT:          0  MISS:       2141
cpu0_STLB PREFETCH  ACCESS:          0  HIT:          0  MISS:          0
cpu0_STLB WRITEBACK ACCESS:          0  HIT:          0  MISS:          0
cpu0_STLB TRANSLATION ACCESS:          0  HIT:          0  MISS:          0
cpu0_STLB PREFETCH  REQUESTED:          0  ISSUED:          0  USEFUL:          0  USELESS:          0
cpu0_STLB AVERAGE MISS LATENCY: 96.4553 cycles
cpu0_L1D TOTAL     ACCESS:   28463272  HIT:   26645784  MISS:    1817488
cpu0_L1D LOAD      ACCESS:    6438840  HIT:    4758250  MISS:    1680590
cpu0_L1D RFO       ACCESS:   21849265  HIT:   21712418  MISS:     136847
cpu0_L1D PREFETCH  ACCESS:          0  HIT:          0  MISS:          0
cpu0_L1D WRITEBACK ACCESS:          0  HIT:          0  MISS:          0
cpu0_L1D TRANSLATION ACCESS:     175167  HIT:     175116  MISS:         51
cpu0_L1D PREFETCH  REQUESTED:          0  ISSUED:          0  USEFUL:          0  USELESS:          0
cpu0_L1D AVERAGE MISS LATENCY: 386.414 cycles
cpu0_L2C TOTAL     ACCESS:    2676936  HIT:     859383  MISS:    1817553
cpu0_L2C LOAD      ACCESS:    1680641  HIT:          0  MISS:    1680641
cpu0_L2C RFO       ACCESS:     136847  HIT:          0  MISS:     136847
cpu0_L2C PREFETCH  ACCESS:          0  HIT:          0  MISS:          0
cpu0_L2C WRITEBACK ACCESS:     859397  HIT:     859383  MISS:         14
cpu0_L2C TRANSLATION ACCESS:         51  HIT:          0  MISS:         51
cpu0_L2C PREFETCH  REQUESTED:          0  ISSUED:          0  USEFUL:          0  USELESS:          0
cpu0_L2C AVERAGE MISS LATENCY: 375.358 cycles
LLC TOTAL     ACCESS:    2673600  HIT:      64947  MISS:    2608653
LLC LOAD      ACCESS:    1680641  HIT:      13219  MISS:    1667422
LLC RFO       ACCESS:     136847  HIT:       5794  MISS:     131053
LLC PREFETCH  ACCESS:          0  HIT:          0  MISS:          0
LLC WRITEBACK ACCESS:     856061  HIT:      45929  MISS:     810132
LLC TRANSLATION ACCESS:         51  HIT:          5  MISS:         46
LLC PREFETCH  REQUESTED:          0  ISSUED:          0  USEFUL:          0  USELESS:          0
LLC AVERAGE MISS LATENCY: 246.896 cycles
Insertion Distribution: 
	LOAD 0 0 0 0 463866 1438924 
	RFO 0 0 0 0 31435 240630 
	PREF 0 0 0 0 0 0 
	WRITEBACK 0 0 0 0 0 958471 
	 0 0 0 0 64 5 
Total Prefetch Downgrades: 0

DRAM Statistics
 CHANNEL 0
 RQ ROW_BUFFER_HIT:     243915  ROW_BUFFER_MISS:    1554585
 DBUS AVG_CONGESTED_CYCLE:    3.96956
 WQ ROW_BUFFER_HIT:      49384  ROW_BUFFER_MISS:     783282  FULL:          0


CPU 0 Branch Prediction Accuracy: 99.9987% MPKI: 0.00058 Average ROB Occupancy at Mispredict: 57.0517
Branch type MPKI
BRANCH_DIRECT_JUMP: 0.0001
BRANCH_INDIRECT: 0
BRANCH_CONDITIONAL: 0.00033
BRANCH_DIRECT_CALL: 8e-05
BRANCH_INDIRECT_CALL: 0
BRANCH_RETURN: 7e-05

