
*** ChampSim Multicore Out-of-Order Simulator ***

Warmup Instructions: 10000000
Simulation Instructions: 100000000
Number of CPUs: 1
Off-chip DRAM Size: 4 GiB Channels: 1 Width: 64-bit Data Rate: 3200 MT/s

VirtualMemory physical capacity: 8588881920 num_ppages: 2096895
VirtualMemory page size: 4096 log2_page_size: 12

CPU 0 runs /datasets/cs240c-wi22-a00-public/data/Assignment2/omnetpp_4B.trace.xz
CPU 0 Bimodal branch predictor
Basic BTB sets: 1024 ways: 8 indirect buffer size: 4096 RAS size: 64
Initialize SRRIP state
Heartbeat CPU 0 instructions: 10000002 cycles: 2526479 heartbeat IPC: 3.95808 cumulative IPC: 3.95808 (Simulation time: 0 hr 0 min 28 sec) 

Warmup complete CPU 0 instructions: 10000002 cycles: 2526479 (Simulation time: 0 hr 0 min 28 sec) 

Heartbeat CPU 0 instructions: 20000000 cycles: 9091237 heartbeat IPC: 1.52329 cumulative IPC: 1.52329 (Simulation time: 0 hr 1 min 7 sec) 
Heartbeat CPU 0 instructions: 30000001 cycles: 15689995 heartbeat IPC: 1.51544 cumulative IPC: 1.51935 (Simulation time: 0 hr 1 min 51 sec) 
Heartbeat CPU 0 instructions: 40000002 cycles: 22343743 heartbeat IPC: 1.50291 cumulative IPC: 1.51383 (Simulation time: 0 hr 2 min 34 sec) 
Heartbeat CPU 0 instructions: 50000000 cycles: 29071207 heartbeat IPC: 1.48644 cumulative IPC: 1.50689 (Simulation time: 0 hr 3 min 18 sec) 
Heartbeat CPU 0 instructions: 60000000 cycles: 35607910 heartbeat IPC: 1.52982 cumulative IPC: 1.51142 (Simulation time: 0 hr 4 min 1 sec) 
Heartbeat CPU 0 instructions: 70000000 cycles: 42125200 heartbeat IPC: 1.53438 cumulative IPC: 1.5152 (Simulation time: 0 hr 4 min 43 sec) 
Heartbeat CPU 0 instructions: 80000000 cycles: 48724344 heartbeat IPC: 1.51535 cumulative IPC: 1.51522 (Simulation time: 0 hr 5 min 26 sec) 
Heartbeat CPU 0 instructions: 90000000 cycles: 55654679 heartbeat IPC: 1.44293 cumulative IPC: 1.50579 (Simulation time: 0 hr 6 min 12 sec) 
Heartbeat CPU 0 instructions: 100000001 cycles: 61901538 heartbeat IPC: 1.6008 cumulative IPC: 1.51579 (Simulation time: 0 hr 6 min 49 sec) 
Heartbeat CPU 0 instructions: 110000002 cycles: 68567848 heartbeat IPC: 1.50008 cumulative IPC: 1.5142 (Simulation time: 0 hr 7 min 32 sec) 
Finished CPU 0 instructions: 100000000 cycles: 66041369 cumulative IPC: 1.5142 (Simulation time: 0 hr 7 min 32 sec) 

ChampSim completed all CPUs

Region of Interest Statistics

CPU 0 cumulative IPC: 1.5142 instructions: 100000000 cycles: 66041369
cpu0_DTLB TOTAL     ACCESS:   11671507  HIT:   10239635  MISS:    1431872
cpu0_DTLB LOAD      ACCESS:    9085171  HIT:    7654861  MISS:    1430310
cpu0_DTLB RFO       ACCESS:    2586336  HIT:    2584774  MISS:       1562
cpu0_DTLB PREFETCH  ACCESS:          0  HIT:          0  MISS:          0
cpu0_DTLB WRITEBACK ACCESS:          0  HIT:          0  MISS:          0
cpu0_DTLB TRANSLATION ACCESS:          0  HIT:          0  MISS:          0
cpu0_DTLB PREFETCH  REQUESTED:          0  ISSUED:          0  USEFUL:          0  USELESS:          0
cpu0_DTLB AVERAGE MISS LATENCY: 17.5523 cycles
cpu0_ITLB TOTAL     ACCESS:    7987587  HIT:    7963420  MISS:      24167
cpu0_ITLB LOAD      ACCESS:    7987587  HIT:    7963420  MISS:      24167
cpu0_ITLB RFO       ACCESS:          0  HIT:          0  MISS:          0
cpu0_ITLB PREFETCH  ACCESS:          0  HIT:          0  MISS:          0
cpu0_ITLB WRITEBACK ACCESS:          0  HIT:          0  MISS:          0
cpu0_ITLB TRANSLATION ACCESS:          0  HIT:          0  MISS:          0
cpu0_ITLB PREFETCH  REQUESTED:          0  ISSUED:          0  USEFUL:          0  USELESS:          0
cpu0_ITLB AVERAGE MISS LATENCY: 10.8491 cycles
cpu0_L1I TOTAL     ACCESS:    1939517  HIT:    1876644  MISS:      62873
cpu0_L1I LOAD      ACCESS:    1939517  HIT:    1876644  MISS:      62873
cpu0_L1I RFO       ACCESS:          0  HIT:          0  MISS:          0
cpu0_L1I PREFETCH  ACCESS:          0  HIT:          0  MISS:          0
cpu0_L1I WRITEBACK ACCESS:          0  HIT:          0  MISS:          0
cpu0_L1I TRANSLATION ACCESS:          0  HIT:          0  MISS:          0
cpu0_L1I PREFETCH  REQUESTED:          0  ISSUED:          0  USEFUL:          0  USELESS:          0
cpu0_L1I AVERAGE MISS LATENCY: 44.951 cycles
cpu0_STLB TOTAL     ACCESS:    1456039  HIT:      23490  MISS:    1432549
cpu0_STLB LOAD      ACCESS:    1454477  HIT:      22745  MISS:    1431732
cpu0_STLB RFO       ACCESS:       1562  HIT:        745  MISS:        817
cpu0_STLB PREFETCH  ACCESS:          0  HIT:          0  MISS:          0
cpu0_STLB WRITEBACK ACCESS:          0  HIT:          0  MISS:          0
cpu0_STLB TRANSLATION ACCESS:          0  HIT:          0  MISS:          0
cpu0_STLB PREFETCH  REQUESTED:          0  ISSUED:          0  USEFUL:          0  USELESS:          0
cpu0_STLB AVERAGE MISS LATENCY: 8.13691 cycles
cpu0_L1D TOTAL     ACCESS:   12506292  HIT:   10016380  MISS:    2489912
cpu0_L1D LOAD      ACCESS:    7247664  HIT:    4796455  MISS:    2451209
cpu0_L1D RFO       ACCESS:    4653173  HIT:    4615465  MISS:      37708
cpu0_L1D PREFETCH  ACCESS:          0  HIT:          0  MISS:          0
cpu0_L1D WRITEBACK ACCESS:          0  HIT:          0  MISS:          0
cpu0_L1D TRANSLATION ACCESS:     605455  HIT:     604460  MISS:        995
cpu0_L1D PREFETCH  REQUESTED:          0  ISSUED:          0  USEFUL:          0  USELESS:          0
cpu0_L1D AVERAGE MISS LATENCY: 63.8535 cycles
cpu0_L2C TOTAL     ACCESS:    2633736  HIT:     114333  MISS:    2519403
cpu0_L2C LOAD      ACCESS:    2514081  HIT:      32386  MISS:    2481695
cpu0_L2C RFO       ACCESS:      37708  HIT:        795  MISS:      36913
cpu0_L2C PREFETCH  ACCESS:          0  HIT:          0  MISS:          0
cpu0_L2C WRITEBACK ACCESS:      80952  HIT:      80952  MISS:          0
cpu0_L2C TRANSLATION ACCESS:        995  HIT:        200  MISS:        795
cpu0_L2C PREFETCH  REQUESTED:          0  ISSUED:          0  USEFUL:          0  USELESS:          0
cpu0_L2C AVERAGE MISS LATENCY: 52.3831 cycles
LLC TOTAL     ACCESS:    2598943  HIT:    2341552  MISS:     257391
LLC LOAD      ACCESS:    2481692  HIT:    2246994  MISS:     234698
LLC RFO       ACCESS:      36913  HIT:      20349  MISS:      16564
LLC PREFETCH  ACCESS:          0  HIT:          0  MISS:          0
LLC WRITEBACK ACCESS:      79543  HIT:      73482  MISS:       6061
LLC TRANSLATION ACCESS:        795  HIT:        727  MISS:         68
LLC PREFETCH  REQUESTED:          0  ISSUED:          0  USEFUL:          0  USELESS:          0
LLC AVERAGE MISS LATENCY: 307.102 cycles
Insertion Distribution: 
	LOAD 102116 0 0 0 108959 85461 
	RFO 3110 0 0 0 6497 8818 
	PREF 0 0 0 0 0 0 
	WRITEBACK 0 0 0 0 0 6800 
	 14 0 0 0 91 0 
Total Prefetch Downgrades: 0

DRAM Statistics
 CHANNEL 0
 RQ ROW_BUFFER_HIT:      23294  ROW_BUFFER_MISS:     226857
 DBUS AVG_CONGESTED_CYCLE:    3.95149
 WQ ROW_BUFFER_HIT:       5325  ROW_BUFFER_MISS:      42061  FULL:          0


CPU 0 Branch Prediction Accuracy: 97.4293% MPKI: 8.26178 Average ROB Occupancy at Mispredict: 57.0258
Branch type MPKI
BRANCH_DIRECT_JUMP: 0.00037
BRANCH_INDIRECT: 0.12485
BRANCH_CONDITIONAL: 8.10493
BRANCH_DIRECT_CALL: 0.00326
BRANCH_INDIRECT_CALL: 0.00558
BRANCH_RETURN: 0.02279

