
*** ChampSim Multicore Out-of-Order Simulator ***

Warmup Instructions: 10000000
Simulation Instructions: 100000000
Number of CPUs: 1
Off-chip DRAM Size: 4 GiB Channels: 1 Width: 64-bit Data Rate: 3200 MT/s

VirtualMemory physical capacity: 8588881920 num_ppages: 2096895
VirtualMemory page size: 4096 log2_page_size: 12

CPU 0 runs /datasets/cs240c-wi22-a00-public/data/Assignment2/astar_163B.trace.xz
CPU 0 Bimodal branch predictor
Basic BTB sets: 1024 ways: 8 indirect buffer size: 4096 RAS size: 64
Initialize Hawkeye state
Heartbeat CPU 0 instructions: 10000003 cycles: 2500067 heartbeat IPC: 3.99989 cumulative IPC: 3.99989 (Simulation time: 0 hr 0 min 34 sec) 

Warmup complete CPU 0 instructions: 10000003 cycles: 2500067 (Simulation time: 0 hr 0 min 34 sec) 

Heartbeat CPU 0 instructions: 20000001 cycles: 19924318 heartbeat IPC: 0.573913 cumulative IPC: 0.573913 (Simulation time: 0 hr 1 min 22 sec) 
Heartbeat CPU 0 instructions: 30000002 cycles: 35853355 heartbeat IPC: 0.627784 cumulative IPC: 0.599641 (Simulation time: 0 hr 2 min 6 sec) 
Heartbeat CPU 0 instructions: 40000000 cycles: 50607458 heartbeat IPC: 0.677777 cumulative IPC: 0.623605 (Simulation time: 0 hr 2 min 47 sec) 
Heartbeat CPU 0 instructions: 50000001 cycles: 65680320 heartbeat IPC: 0.663444 cumulative IPC: 0.633109 (Simulation time: 0 hr 3 min 28 sec) 
Heartbeat CPU 0 instructions: 60000003 cycles: 80339065 heartbeat IPC: 0.682187 cumulative IPC: 0.642352 (Simulation time: 0 hr 4 min 8 sec) 
Heartbeat CPU 0 instructions: 70000002 cycles: 95172954 heartbeat IPC: 0.674132 cumulative IPC: 0.647439 (Simulation time: 0 hr 4 min 48 sec) 
Heartbeat CPU 0 instructions: 80000000 cycles: 110008898 heartbeat IPC: 0.674039 cumulative IPC: 0.651109 (Simulation time: 0 hr 5 min 29 sec) 
Heartbeat CPU 0 instructions: 90000001 cycles: 124627373 heartbeat IPC: 0.684066 cumulative IPC: 0.655054 (Simulation time: 0 hr 6 min 9 sec) 
Heartbeat CPU 0 instructions: 100000003 cycles: 139511233 heartbeat IPC: 0.671869 cumulative IPC: 0.656881 (Simulation time: 0 hr 6 min 50 sec) 
Heartbeat CPU 0 instructions: 110000000 cycles: 154574228 heartbeat IPC: 0.663878 cumulative IPC: 0.657574 (Simulation time: 0 hr 7 min 31 sec) 
Finished CPU 0 instructions: 100000000 cycles: 152074162 cumulative IPC: 0.657574 (Simulation time: 0 hr 7 min 31 sec) 

ChampSim completed all CPUs

Region of Interest Statistics

CPU 0 cumulative IPC: 0.657574 instructions: 100000000 cycles: 152074162
cpu0_DTLB TOTAL     ACCESS:   21351775  HIT:   21042809  MISS:     308966
cpu0_DTLB LOAD      ACCESS:   16588116  HIT:   16287122  MISS:     300994
cpu0_DTLB RFO       ACCESS:    4763659  HIT:    4755687  MISS:       7972
cpu0_DTLB PREFETCH  ACCESS:          0  HIT:          0  MISS:          0
cpu0_DTLB WRITEBACK ACCESS:          0  HIT:          0  MISS:          0
cpu0_DTLB TRANSLATION ACCESS:          0  HIT:          0  MISS:          0
cpu0_DTLB PREFETCH  REQUESTED:          0  ISSUED:          0  USEFUL:          0  USELESS:          0
cpu0_DTLB AVERAGE MISS LATENCY: 10.2805 cycles
cpu0_ITLB TOTAL     ACCESS:   11988897  HIT:   11988890  MISS:          7
cpu0_ITLB LOAD      ACCESS:   11988897  HIT:   11988890  MISS:          7
cpu0_ITLB RFO       ACCESS:          0  HIT:          0  MISS:          0
cpu0_ITLB PREFETCH  ACCESS:          0  HIT:          0  MISS:          0
cpu0_ITLB WRITEBACK ACCESS:          0  HIT:          0  MISS:          0
cpu0_ITLB TRANSLATION ACCESS:          0  HIT:          0  MISS:          0
cpu0_ITLB PREFETCH  REQUESTED:          0  ISSUED:          0  USEFUL:          0  USELESS:          0
cpu0_ITLB AVERAGE MISS LATENCY: 353.857 cycles
cpu0_L1I TOTAL     ACCESS:      30504  HIT:      30418  MISS:         86
cpu0_L1I LOAD      ACCESS:      30504  HIT:      30418  MISS:         86
cpu0_L1I RFO       ACCESS:          0  HIT:          0  MISS:          0
cpu0_L1I PREFETCH  ACCESS:          0  HIT:          0  MISS:          0
cpu0_L1I WRITEBACK ACCESS:          0  HIT:          0  MISS:          0
cpu0_L1I TRANSLATION ACCESS:          0  HIT:          0  MISS:          0
cpu0_L1I PREFETCH  REQUESTED:          0  ISSUED:          0  USEFUL:          0  USELESS:          0
cpu0_L1I AVERAGE MISS LATENCY: 268.535 cycles
cpu0_STLB TOTAL     ACCESS:     308973  HIT:     291503  MISS:      17470
cpu0_STLB LOAD      ACCESS:     301001  HIT:     285663  MISS:      15338
cpu0_STLB RFO       ACCESS:       7972  HIT:       5840  MISS:       2132
cpu0_STLB PREFETCH  ACCESS:          0  HIT:          0  MISS:          0
cpu0_STLB WRITEBACK ACCESS:          0  HIT:          0  MISS:          0
cpu0_STLB TRANSLATION ACCESS:          0  HIT:          0  MISS:          0
cpu0_STLB PREFETCH  REQUESTED:          0  ISSUED:          0  USEFUL:          0  USELESS:          0
cpu0_STLB AVERAGE MISS LATENCY: 22.6533 cycles
cpu0_L1D TOTAL     ACCESS:   27133667  HIT:   26719256  MISS:     414411
cpu0_L1D LOAD      ACCESS:   16915059  HIT:   16581708  MISS:     333351
cpu0_L1D RFO       ACCESS:   10201194  HIT:   10120395  MISS:      80799
cpu0_L1D PREFETCH  ACCESS:          0  HIT:          0  MISS:          0
cpu0_L1D WRITEBACK ACCESS:          0  HIT:          0  MISS:          0
cpu0_L1D TRANSLATION ACCESS:      17414  HIT:      17153  MISS:        261
cpu0_L1D PREFETCH  REQUESTED:          0  ISSUED:          0  USEFUL:          0  USELESS:          0
cpu0_L1D AVERAGE MISS LATENCY: 64.8067 cycles
cpu0_L2C TOTAL     ACCESS:     633363  HIT:     441406  MISS:     191957
cpu0_L2C LOAD      ACCESS:     333369  HIT:     209330  MISS:     124039
cpu0_L2C RFO       ACCESS:      80799  HIT:      12919  MISS:      67880
cpu0_L2C PREFETCH  ACCESS:          0  HIT:          0  MISS:          0
cpu0_L2C WRITEBACK ACCESS:     218934  HIT:     218930  MISS:          4
cpu0_L2C TRANSLATION ACCESS:        261  HIT:        227  MISS:         34
cpu0_L2C PREFETCH  REQUESTED:          0  ISSUED:          0  USEFUL:          0  USELESS:          0
cpu0_L2C AVERAGE MISS LATENCY: 116.28 cycles
LLC TOTAL     ACCESS:     335199  HIT:     176024  MISS:     159175
LLC LOAD      ACCESS:     124038  HIT:      42117  MISS:      81921
LLC RFO       ACCESS:      67880  HIT:      32549  MISS:      35331
LLC PREFETCH  ACCESS:          0  HIT:          0  MISS:          0
LLC WRITEBACK ACCESS:     143247  HIT:     101335  MISS:      41912
LLC TRANSLATION ACCESS:         34  HIT:         23  MISS:         11
LLC PREFETCH  REQUESTED:          0  ISSUED:          0  USEFUL:          0  USELESS:          0
LLC AVERAGE MISS LATENCY: 114.904 cycles
OPTgen accesses: 3441
OPTgen hits: 1836
OPTgen hit rate: 53.3566



DRAM Statistics
 CHANNEL 0
 RQ ROW_BUFFER_HIT:      10666  ROW_BUFFER_MISS:     106593
 DBUS AVG_CONGESTED_CYCLE:    3.82916
 WQ ROW_BUFFER_HIT:       6423  ROW_BUFFER_MISS:      72208  FULL:          0


CPU 0 Branch Prediction Accuracy: 70.0225% MPKI: 43.9041 Average ROB Occupancy at Mispredict: 12.6196
Branch type MPKI
BRANCH_DIRECT_JUMP: 0.00019
BRANCH_INDIRECT: 0
BRANCH_CONDITIONAL: 43.9037
BRANCH_DIRECT_CALL: 0.00012
BRANCH_INDIRECT_CALL: 0
BRANCH_RETURN: 0.00012

