
*** ChampSim Multicore Out-of-Order Simulator ***

Warmup Instructions: 10000000
Simulation Instructions: 100000000
Number of CPUs: 1
Off-chip DRAM Size: 4 GiB Channels: 1 Width: 64-bit Data Rate: 3200 MT/s

VirtualMemory physical capacity: 8588881920 num_ppages: 2096895
VirtualMemory page size: 4096 log2_page_size: 12

CPU 0 runs /datasets/cs240c-wi22-a00-public/data/Assignment2/gcc_13B.trace.xz
CPU 0 Bimodal branch predictor
Basic BTB sets: 1024 ways: 8 indirect buffer size: 4096 RAS size: 64
Initialize Hawkeye state
Heartbeat CPU 0 instructions: 10000003 cycles: 2971470 heartbeat IPC: 3.36534 cumulative IPC: 3.36534 (Simulation time: 0 hr 0 min 48 sec) 

Warmup complete CPU 0 instructions: 10000003 cycles: 2971470 (Simulation time: 0 hr 0 min 48 sec) 

Heartbeat CPU 0 instructions: 20000003 cycles: 49714796 heartbeat IPC: 0.213934 cumulative IPC: 0.213934 (Simulation time: 0 hr 3 min 1 sec) 
Heartbeat CPU 0 instructions: 30000002 cycles: 102599133 heartbeat IPC: 0.189092 cumulative IPC: 0.200747 (Simulation time: 0 hr 5 min 29 sec) 
Heartbeat CPU 0 instructions: 40000004 cycles: 138189741 heartbeat IPC: 0.280973 cumulative IPC: 0.221864 (Simulation time: 0 hr 7 min 46 sec) 
Heartbeat CPU 0 instructions: 50000002 cycles: 156406859 heartbeat IPC: 0.548934 cumulative IPC: 0.260696 (Simulation time: 0 hr 8 min 38 sec) 
Heartbeat CPU 0 instructions: 60000003 cycles: 174400243 heartbeat IPC: 0.55576 cumulative IPC: 0.291666 (Simulation time: 0 hr 9 min 30 sec) 
Heartbeat CPU 0 instructions: 70000000 cycles: 192137578 heartbeat IPC: 0.563782 cumulative IPC: 0.317182 (Simulation time: 0 hr 10 min 21 sec) 
Heartbeat CPU 0 instructions: 80000002 cycles: 209014581 heartbeat IPC: 0.592522 cumulative IPC: 0.339735 (Simulation time: 0 hr 11 min 9 sec) 
Heartbeat CPU 0 instructions: 90000000 cycles: 227150167 heartbeat IPC: 0.551402 cumulative IPC: 0.356858 (Simulation time: 0 hr 12 min 0 sec) 
Heartbeat CPU 0 instructions: 100000000 cycles: 244924545 heartbeat IPC: 0.562608 cumulative IPC: 0.371973 (Simulation time: 0 hr 12 min 49 sec) 
Heartbeat CPU 0 instructions: 110000002 cycles: 269488693 heartbeat IPC: 0.407097 cumulative IPC: 0.37521 (Simulation time: 0 hr 13 min 50 sec) 
Finished CPU 0 instructions: 100000004 cycles: 266517224 cumulative IPC: 0.37521 (Simulation time: 0 hr 13 min 50 sec) 

ChampSim completed all CPUs

Region of Interest Statistics

CPU 0 cumulative IPC: 0.37521 instructions: 100000004 cycles: 266517224
cpu0_DTLB TOTAL     ACCESS:   19461229  HIT:   19359039  MISS:     102190
cpu0_DTLB LOAD      ACCESS:   14025568  HIT:   13938352  MISS:      87216
cpu0_DTLB RFO       ACCESS:    5435661  HIT:    5420687  MISS:      14974
cpu0_DTLB PREFETCH  ACCESS:          0  HIT:          0  MISS:          0
cpu0_DTLB WRITEBACK ACCESS:          0  HIT:          0  MISS:          0
cpu0_DTLB TRANSLATION ACCESS:          0  HIT:          0  MISS:          0
cpu0_DTLB PREFETCH  REQUESTED:          0  ISSUED:          0  USEFUL:          0  USELESS:          0
cpu0_DTLB AVERAGE MISS LATENCY: 29.4236 cycles
cpu0_ITLB TOTAL     ACCESS:   10352985  HIT:   10352924  MISS:         61
cpu0_ITLB LOAD      ACCESS:   10352985  HIT:   10352924  MISS:         61
cpu0_ITLB RFO       ACCESS:          0  HIT:          0  MISS:          0
cpu0_ITLB PREFETCH  ACCESS:          0  HIT:          0  MISS:          0
cpu0_ITLB WRITEBACK ACCESS:          0  HIT:          0  MISS:          0
cpu0_ITLB TRANSLATION ACCESS:          0  HIT:          0  MISS:          0
cpu0_ITLB PREFETCH  REQUESTED:          0  ISSUED:          0  USEFUL:          0  USELESS:          0
cpu0_ITLB AVERAGE MISS LATENCY: 143.836 cycles
cpu0_L1I TOTAL     ACCESS:    6565305  HIT:    6564933  MISS:        372
cpu0_L1I LOAD      ACCESS:    6565305  HIT:    6564933  MISS:        372
cpu0_L1I RFO       ACCESS:          0  HIT:          0  MISS:          0
cpu0_L1I PREFETCH  ACCESS:          0  HIT:          0  MISS:          0
cpu0_L1I WRITEBACK ACCESS:          0  HIT:          0  MISS:          0
cpu0_L1I TRANSLATION ACCESS:          0  HIT:          0  MISS:          0
cpu0_L1I PREFETCH  REQUESTED:          0  ISSUED:          0  USEFUL:          0  USELESS:          0
cpu0_L1I AVERAGE MISS LATENCY: 172.766 cycles
cpu0_STLB TOTAL     ACCESS:     102251  HIT:      33351  MISS:      68900
cpu0_STLB LOAD      ACCESS:      87277  HIT:      30311  MISS:      56966
cpu0_STLB RFO       ACCESS:      14974  HIT:       3040  MISS:      11934
cpu0_STLB PREFETCH  ACCESS:          0  HIT:          0  MISS:          0
cpu0_STLB WRITEBACK ACCESS:          0  HIT:          0  MISS:          0
cpu0_STLB TRANSLATION ACCESS:          0  HIT:          0  MISS:          0
cpu0_STLB PREFETCH  REQUESTED:          0  ISSUED:          0  USEFUL:          0  USELESS:          0
cpu0_STLB AVERAGE MISS LATENCY: 30.4048 cycles
cpu0_L1D TOTAL     ACCESS:   26267138  HIT:   24723378  MISS:    1543760
cpu0_L1D LOAD      ACCESS:   12776845  HIT:   11510040  MISS:    1266805
cpu0_L1D RFO       ACCESS:   13421605  HIT:   13145722  MISS:     275883
cpu0_L1D PREFETCH  ACCESS:          0  HIT:          0  MISS:          0
cpu0_L1D WRITEBACK ACCESS:          0  HIT:          0  MISS:          0
cpu0_L1D TRANSLATION ACCESS:      68688  HIT:      67616  MISS:       1072
cpu0_L1D PREFETCH  REQUESTED:          0  ISSUED:          0  USEFUL:          0  USELESS:          0
cpu0_L1D AVERAGE MISS LATENCY: 261.308 cycles
cpu0_L2C TOTAL     ACCESS:    1956884  HIT:     461828  MISS:    1495056
cpu0_L2C LOAD      ACCESS:    1267177  HIT:      46446  MISS:    1220731
cpu0_L2C RFO       ACCESS:     275883  HIT:       1818  MISS:     274065
cpu0_L2C PREFETCH  ACCESS:          0  HIT:          0  MISS:          0
cpu0_L2C WRITEBACK ACCESS:     412752  HIT:     412701  MISS:         51
cpu0_L2C TRANSLATION ACCESS:       1072  HIT:        863  MISS:        209
cpu0_L2C PREFETCH  REQUESTED:          0  ISSUED:          0  USEFUL:          0  USELESS:          0
cpu0_L2C AVERAGE MISS LATENCY: 258.471 cycles
LLC TOTAL     ACCESS:    1905465  HIT:     269471  MISS:    1635994
LLC LOAD      ACCESS:    1220731  HIT:     153016  MISS:    1067715
LLC RFO       ACCESS:     274065  HIT:      31570  MISS:     242495
LLC PREFETCH  ACCESS:          0  HIT:          0  MISS:          0
LLC WRITEBACK ACCESS:     410460  HIT:      84767  MISS:     325693
LLC TRANSLATION ACCESS:        209  HIT:        118  MISS:         91
LLC PREFETCH  REQUESTED:          0  ISSUED:          0  USEFUL:          0  USELESS:          0
LLC AVERAGE MISS LATENCY: 217.013 cycles
OPTgen accesses: 30444
OPTgen hits: 5160
OPTgen hit rate: 16.9492



DRAM Statistics
 CHANNEL 0
 RQ ROW_BUFFER_HIT:     206315  ROW_BUFFER_MISS:    1103929
 DBUS AVG_CONGESTED_CYCLE:     3.9327
 WQ ROW_BUFFER_HIT:      46767  ROW_BUFFER_MISS:     344135  FULL:      16908


CPU 0 Branch Prediction Accuracy: 87.437% MPKI: 28.6507 Average ROB Occupancy at Mispredict: 19.8669
Branch type MPKI
BRANCH_DIRECT_JUMP: 0.0008
BRANCH_INDIRECT: 0.00403
BRANCH_CONDITIONAL: 28.6428
BRANCH_DIRECT_CALL: 0.00114
BRANCH_INDIRECT_CALL: 0.0008
BRANCH_RETURN: 0.00114

