
*** ChampSim Multicore Out-of-Order Simulator ***

Warmup Instructions: 10000000
Simulation Instructions: 100000000
Number of CPUs: 1
Off-chip DRAM Size: 4 GiB Channels: 1 Width: 64-bit Data Rate: 3200 MT/s

VirtualMemory physical capacity: 8588881920 num_ppages: 2096895
VirtualMemory page size: 4096 log2_page_size: 12

CPU 0 runs /datasets/cs240c-wi22-a00-public/data/Assignment2/gcc_56B.trace.xz
CPU 0 Bimodal branch predictor
Basic BTB sets: 1024 ways: 8 indirect buffer size: 4096 RAS size: 64
Initialize Hawkeye state
Heartbeat CPU 0 instructions: 10000002 cycles: 4887926 heartbeat IPC: 2.04586 cumulative IPC: 2.04586 (Simulation time: 0 hr 1 min 22 sec) 

Warmup complete CPU 0 instructions: 10000002 cycles: 4887926 (Simulation time: 0 hr 1 min 22 sec) 

Heartbeat CPU 0 instructions: 20000003 cycles: 11808089 heartbeat IPC: 1.44505 cumulative IPC: 1.44505 (Simulation time: 0 hr 3 min 6 sec) 
Heartbeat CPU 0 instructions: 30000002 cycles: 18653778 heartbeat IPC: 1.46077 cumulative IPC: 1.45287 (Simulation time: 0 hr 4 min 54 sec) 
Heartbeat CPU 0 instructions: 40000001 cycles: 25554069 heartbeat IPC: 1.44921 cumulative IPC: 1.45165 (Simulation time: 0 hr 6 min 38 sec) 
Heartbeat CPU 0 instructions: 50000000 cycles: 32383629 heartbeat IPC: 1.46422 cumulative IPC: 1.45477 (Simulation time: 0 hr 8 min 27 sec) 
Heartbeat CPU 0 instructions: 60000002 cycles: 39272761 heartbeat IPC: 1.45156 cumulative IPC: 1.45413 (Simulation time: 0 hr 10 min 9 sec) 
Heartbeat CPU 0 instructions: 70000000 cycles: 46082786 heartbeat IPC: 1.46842 cumulative IPC: 1.45649 (Simulation time: 0 hr 11 min 57 sec) 
Heartbeat CPU 0 instructions: 80000001 cycles: 52985231 heartbeat IPC: 1.44876 cumulative IPC: 1.45538 (Simulation time: 0 hr 13 min 43 sec) 
Heartbeat CPU 0 instructions: 90000000 cycles: 59788860 heartbeat IPC: 1.4698 cumulative IPC: 1.45717 (Simulation time: 0 hr 15 min 26 sec) 
Heartbeat CPU 0 instructions: 100000001 cycles: 66627591 heartbeat IPC: 1.46226 cumulative IPC: 1.45773 (Simulation time: 0 hr 17 min 8 sec) 
Heartbeat CPU 0 instructions: 110000001 cycles: 73484551 heartbeat IPC: 1.45837 cumulative IPC: 1.4578 (Simulation time: 0 hr 18 min 52 sec) 
Finished CPU 0 instructions: 100000004 cycles: 68596629 cumulative IPC: 1.4578 (Simulation time: 0 hr 18 min 52 sec) 

ChampSim completed all CPUs

Region of Interest Statistics

CPU 0 cumulative IPC: 1.4578 instructions: 100000004 cycles: 68596629
cpu0_DTLB TOTAL     ACCESS:   16711906  HIT:   16386308  MISS:     325598
cpu0_DTLB LOAD      ACCESS:    1813828  HIT:    1683612  MISS:     130216
cpu0_DTLB RFO       ACCESS:   14898078  HIT:   14702696  MISS:     195382
cpu0_DTLB PREFETCH  ACCESS:          0  HIT:          0  MISS:          0
cpu0_DTLB WRITEBACK ACCESS:          0  HIT:          0  MISS:          0
cpu0_DTLB TRANSLATION ACCESS:          0  HIT:          0  MISS:          0
cpu0_DTLB PREFETCH  REQUESTED:          0  ISSUED:          0  USEFUL:          0  USELESS:          0
cpu0_DTLB AVERAGE MISS LATENCY: 10.4747 cycles
cpu0_ITLB TOTAL     ACCESS:    3212908  HIT:    3212908  MISS:          0
cpu0_ITLB LOAD      ACCESS:    3212908  HIT:    3212908  MISS:          0
cpu0_ITLB RFO       ACCESS:          0  HIT:          0  MISS:          0
cpu0_ITLB PREFETCH  ACCESS:          0  HIT:          0  MISS:          0
cpu0_ITLB WRITEBACK ACCESS:          0  HIT:          0  MISS:          0
cpu0_ITLB TRANSLATION ACCESS:          0  HIT:          0  MISS:          0
cpu0_ITLB PREFETCH  REQUESTED:          0  ISSUED:          0  USEFUL:          0  USELESS:          0
cpu0_ITLB AVERAGE MISS LATENCY: -nan cycles
cpu0_L1I TOTAL     ACCESS:    1024851  HIT:    1024851  MISS:          0
cpu0_L1I LOAD      ACCESS:    1024851  HIT:    1024851  MISS:          0
cpu0_L1I RFO       ACCESS:          0  HIT:          0  MISS:          0
cpu0_L1I PREFETCH  ACCESS:          0  HIT:          0  MISS:          0
cpu0_L1I WRITEBACK ACCESS:          0  HIT:          0  MISS:          0
cpu0_L1I TRANSLATION ACCESS:          0  HIT:          0  MISS:          0
cpu0_L1I PREFETCH  REQUESTED:          0  ISSUED:          0  USEFUL:          0  USELESS:          0
cpu0_L1I AVERAGE MISS LATENCY: -nan cycles
cpu0_STLB TOTAL     ACCESS:     325598  HIT:     323558  MISS:       2040
cpu0_STLB LOAD      ACCESS:     130216  HIT:     128366  MISS:       1850
cpu0_STLB RFO       ACCESS:     195382  HIT:     195192  MISS:        190
cpu0_STLB PREFETCH  ACCESS:          0  HIT:          0  MISS:          0
cpu0_STLB WRITEBACK ACCESS:          0  HIT:          0  MISS:          0
cpu0_STLB TRANSLATION ACCESS:          0  HIT:          0  MISS:          0
cpu0_STLB PREFETCH  REQUESTED:          0  ISSUED:          0  USEFUL:          0  USELESS:          0
cpu0_STLB AVERAGE MISS LATENCY: 234.454 cycles
cpu0_L1D TOTAL     ACCESS:   14356135  HIT:    3685607  MISS:   10670528
cpu0_L1D LOAD      ACCESS:    2030694  HIT:    1835817  MISS:     194877
cpu0_L1D RFO       ACCESS:   12323403  HIT:    1849392  MISS:   10474011
cpu0_L1D PREFETCH  ACCESS:          0  HIT:          0  MISS:          0
cpu0_L1D WRITEBACK ACCESS:          0  HIT:          0  MISS:          0
cpu0_L1D TRANSLATION ACCESS:       2038  HIT:        398  MISS:       1640
cpu0_L1D PREFETCH  REQUESTED:          0  ISSUED:          0  USEFUL:          0  USELESS:          0
cpu0_L1D AVERAGE MISS LATENCY: 21.343 cycles
cpu0_L2C TOTAL     ACCESS:   21206416  HIT:   16357193  MISS:    4849223
cpu0_L2C LOAD      ACCESS:     194877  HIT:      81975  MISS:     112902
cpu0_L2C RFO       ACCESS:   10474011  HIT:    5739248  MISS:    4734763
cpu0_L2C PREFETCH  ACCESS:          0  HIT:          0  MISS:          0
cpu0_L2C WRITEBACK ACCESS:   10535888  HIT:   10535888  MISS:          0
cpu0_L2C TRANSLATION ACCESS:       1640  HIT:         82  MISS:       1558
cpu0_L2C PREFETCH  REQUESTED:          0  ISSUED:          0  USEFUL:          0  USELESS:          0
cpu0_L2C AVERAGE MISS LATENCY: 22.7574 cycles
LLC TOTAL     ACCESS:    9620055  HIT:    9562157  MISS:      57898
LLC LOAD      ACCESS:     112902  HIT:      68433  MISS:      44469
LLC RFO       ACCESS:    4734762  HIT:    4724820  MISS:       9942
LLC PREFETCH  ACCESS:          0  HIT:          0  MISS:          0
LLC WRITEBACK ACCESS:    4770833  HIT:    4767406  MISS:       3427
LLC TRANSLATION ACCESS:       1558  HIT:       1498  MISS:         60
LLC PREFETCH  REQUESTED:          0  ISSUED:          0  USEFUL:          0  USELESS:          0
LLC AVERAGE MISS LATENCY: 147.187 cycles
OPTgen accesses: 86565
OPTgen hits: 85458
OPTgen hit rate: 98.7212



DRAM Statistics
 CHANNEL 0
 RQ ROW_BUFFER_HIT:       3810  ROW_BUFFER_MISS:      50661
 DBUS AVG_CONGESTED_CYCLE:      3.744
 WQ ROW_BUFFER_HIT:       3909  ROW_BUFFER_MISS:       6714  FULL:          0


CPU 0 Branch Prediction Accuracy: 96.6773% MPKI: 5.68307 Average ROB Occupancy at Mispredict: 28.7031
Branch type MPKI
BRANCH_DIRECT_JUMP: 0
BRANCH_INDIRECT: 0.06726
BRANCH_CONDITIONAL: 5.61581
BRANCH_DIRECT_CALL: 0
BRANCH_INDIRECT_CALL: 0
BRANCH_RETURN: 0

