
*** ChampSim Multicore Out-of-Order Simulator ***

Warmup Instructions: 10000000
Simulation Instructions: 100000000
Number of CPUs: 1
Off-chip DRAM Size: 4 GiB Channels: 1 Width: 64-bit Data Rate: 3200 MT/s

VirtualMemory physical capacity: 8588881920 num_ppages: 2096895
VirtualMemory page size: 4096 log2_page_size: 12

CPU 0 runs /datasets/cs240c-wi22-a00-public/data/Assignment2/perlbench_135B.trace.xz
CPU 0 Bimodal branch predictor
Basic BTB sets: 1024 ways: 8 indirect buffer size: 4096 RAS size: 64
Initialize Hawkeye state
Heartbeat CPU 0 instructions: 10000000 cycles: 2501133 heartbeat IPC: 3.99819 cumulative IPC: 3.99819 (Simulation time: 0 hr 0 min 36 sec) 

Warmup complete CPU 0 instructions: 10000004 cycles: 2501134 (Simulation time: 0 hr 0 min 36 sec) 

Heartbeat CPU 0 instructions: 20000003 cycles: 16331181 heartbeat IPC: 0.723064 cumulative IPC: 0.723063 (Simulation time: 0 hr 1 min 30 sec) 
Heartbeat CPU 0 instructions: 30000004 cycles: 29092116 heartbeat IPC: 0.783642 cumulative IPC: 0.752135 (Simulation time: 0 hr 2 min 22 sec) 
Heartbeat CPU 0 instructions: 40000001 cycles: 40535173 heartbeat IPC: 0.873892 cumulative IPC: 0.788767 (Simulation time: 0 hr 3 min 11 sec) 
Heartbeat CPU 0 instructions: 50000000 cycles: 53153745 heartbeat IPC: 0.792483 cumulative IPC: 0.789693 (Simulation time: 0 hr 4 min 2 sec) 
Heartbeat CPU 0 instructions: 60000000 cycles: 64718180 heartbeat IPC: 0.86472 cumulative IPC: 0.803638 (Simulation time: 0 hr 4 min 50 sec) 
Heartbeat CPU 0 instructions: 70000001 cycles: 77638288 heartbeat IPC: 0.773987 cumulative IPC: 0.79854 (Simulation time: 0 hr 5 min 40 sec) 
Heartbeat CPU 0 instructions: 80000000 cycles: 88577902 heartbeat IPC: 0.914109 cumulative IPC: 0.813228 (Simulation time: 0 hr 6 min 24 sec) 
Heartbeat CPU 0 instructions: 90000004 cycles: 99455298 heartbeat IPC: 0.919338 cumulative IPC: 0.825132 (Simulation time: 0 hr 7 min 6 sec) 
Heartbeat CPU 0 instructions: 100000000 cycles: 112993338 heartbeat IPC: 0.738659 cumulative IPC: 0.814537 (Simulation time: 0 hr 7 min 58 sec) 
Heartbeat CPU 0 instructions: 110000000 cycles: 126283740 heartbeat IPC: 0.752423 cumulative IPC: 0.807868 (Simulation time: 0 hr 8 min 52 sec) 
Finished CPU 0 instructions: 100000000 cycles: 123782608 cumulative IPC: 0.807868 (Simulation time: 0 hr 8 min 52 sec) 

ChampSim completed all CPUs

Region of Interest Statistics

CPU 0 cumulative IPC: 0.807868 instructions: 100000000 cycles: 123782608
cpu0_DTLB TOTAL     ACCESS:   24834131  HIT:   24177383  MISS:     656748
cpu0_DTLB LOAD      ACCESS:   16163502  HIT:   15592062  MISS:     571440
cpu0_DTLB RFO       ACCESS:    8670629  HIT:    8585321  MISS:      85308
cpu0_DTLB PREFETCH  ACCESS:          0  HIT:          0  MISS:          0
cpu0_DTLB WRITEBACK ACCESS:          0  HIT:          0  MISS:          0
cpu0_DTLB TRANSLATION ACCESS:          0  HIT:          0  MISS:          0
cpu0_DTLB PREFETCH  REQUESTED:          0  ISSUED:          0  USEFUL:          0  USELESS:          0
cpu0_DTLB AVERAGE MISS LATENCY: 9.30637 cycles
cpu0_ITLB TOTAL     ACCESS:    8520283  HIT:    8442119  MISS:      78164
cpu0_ITLB LOAD      ACCESS:    8520283  HIT:    8442119  MISS:      78164
cpu0_ITLB RFO       ACCESS:          0  HIT:          0  MISS:          0
cpu0_ITLB PREFETCH  ACCESS:          0  HIT:          0  MISS:          0
cpu0_ITLB WRITEBACK ACCESS:          0  HIT:          0  MISS:          0
cpu0_ITLB TRANSLATION ACCESS:          0  HIT:          0  MISS:          0
cpu0_ITLB PREFETCH  REQUESTED:          0  ISSUED:          0  USEFUL:          0  USELESS:          0
cpu0_ITLB AVERAGE MISS LATENCY: 9.11647 cycles
cpu0_L1I TOTAL     ACCESS:    9977240  HIT:    9296924  MISS:     680316
cpu0_L1I LOAD      ACCESS:    9977240  HIT:    9296924  MISS:     680316
cpu0_L1I RFO       ACCESS:          0  HIT:          0  MISS:          0
cpu0_L1I PREFETCH  ACCESS:          0  HIT:          0  MISS:          0
cpu0_L1I WRITEBACK ACCESS:          0  HIT:          0  MISS:          0
cpu0_L1I TRANSLATION ACCESS:          0  HIT:          0  MISS:          0
cpu0_L1I PREFETCH  REQUESTED:          0  ISSUED:          0  USEFUL:          0  USELESS:          0
cpu0_L1I AVERAGE MISS LATENCY: 12.1189 cycles
cpu0_STLB TOTAL     ACCESS:     734912  HIT:     726459  MISS:       8453
cpu0_STLB LOAD      ACCESS:     649604  HIT:     642241  MISS:       7363
cpu0_STLB RFO       ACCESS:      85308  HIT:      84218  MISS:       1090
cpu0_STLB PREFETCH  ACCESS:          0  HIT:          0  MISS:          0
cpu0_STLB WRITEBACK ACCESS:          0  HIT:          0  MISS:          0
cpu0_STLB TRANSLATION ACCESS:          0  HIT:          0  MISS:          0
cpu0_STLB PREFETCH  REQUESTED:          0  ISSUED:          0  USEFUL:          0  USELESS:          0
cpu0_STLB AVERAGE MISS LATENCY: 24.3948 cycles
cpu0_L1D TOTAL     ACCESS:   32040518  HIT:   31087728  MISS:     952790
cpu0_L1D LOAD      ACCESS:   16947397  HIT:   16082949  MISS:     864448
cpu0_L1D RFO       ACCESS:   15084706  HIT:   14997926  MISS:      86780
cpu0_L1D PREFETCH  ACCESS:          0  HIT:          0  MISS:          0
cpu0_L1D WRITEBACK ACCESS:          0  HIT:          0  MISS:          0
cpu0_L1D TRANSLATION ACCESS:       8415  HIT:       6853  MISS:       1562
cpu0_L1D PREFETCH  REQUESTED:          0  ISSUED:          0  USEFUL:          0  USELESS:          0
cpu0_L1D AVERAGE MISS LATENCY: 17.5686 cycles
cpu0_L2C TOTAL     ACCESS:    1889414  HIT:    1714333  MISS:     175081
cpu0_L2C LOAD      ACCESS:    1544750  HIT:    1392625  MISS:     152125
cpu0_L2C RFO       ACCESS:      86773  HIT:      64517  MISS:      22256
cpu0_L2C PREFETCH  ACCESS:          0  HIT:          0  MISS:          0
cpu0_L2C WRITEBACK ACCESS:     256329  HIT:     255859  MISS:        470
cpu0_L2C TRANSLATION ACCESS:       1562  HIT:       1332  MISS:        230
cpu0_L2C PREFETCH  REQUESTED:          0  ISSUED:          0  USEFUL:          0  USELESS:          0
cpu0_L2C AVERAGE MISS LATENCY: 39.941 cycles
LLC TOTAL     ACCESS:     226405  HIT:     203133  MISS:      23272
LLC LOAD      ACCESS:     152125  HIT:     133932  MISS:      18193
LLC RFO       ACCESS:      22256  HIT:      17649  MISS:       4607
LLC PREFETCH  ACCESS:          0  HIT:          0  MISS:          0
LLC WRITEBACK ACCESS:      51794  HIT:      51328  MISS:        466
LLC TRANSLATION ACCESS:        230  HIT:        224  MISS:          6
LLC PREFETCH  REQUESTED:          0  ISSUED:          0  USEFUL:          0  USELESS:          0
LLC AVERAGE MISS LATENCY: 142.921 cycles
OPTgen accesses: 3385
OPTgen hits: 2716
OPTgen hit rate: 80.2363



DRAM Statistics
 CHANNEL 0
 RQ ROW_BUFFER_HIT:       4852  ROW_BUFFER_MISS:      17954
 DBUS AVG_CONGESTED_CYCLE:    3.86118
 WQ ROW_BUFFER_HIT:       1191  ROW_BUFFER_MISS:       3275  FULL:          0


CPU 0 Branch Prediction Accuracy: 94.5426% MPKI: 12.0745 Average ROB Occupancy at Mispredict: 40.9012
Branch type MPKI
BRANCH_DIRECT_JUMP: 0.00217
BRANCH_INDIRECT: 0.80239
BRANCH_CONDITIONAL: 9.8183
BRANCH_DIRECT_CALL: 0.00216
BRANCH_INDIRECT_CALL: 1.42497
BRANCH_RETURN: 0.02455

