
*** ChampSim Multicore Out-of-Order Simulator ***

Warmup Instructions: 10000000
Simulation Instructions: 100000000
Number of CPUs: 1
Off-chip DRAM Size: 4 GiB Channels: 1 Width: 64-bit Data Rate: 3200 MT/s

VirtualMemory physical capacity: 8588881920 num_ppages: 2096895
VirtualMemory page size: 4096 log2_page_size: 12

CPU 0 runs /datasets/cs240c-wi22-a00-public/data/Assignment2/astar_313B.trace.xz
CPU 0 Bimodal branch predictor
Basic BTB sets: 1024 ways: 8 indirect buffer size: 4096 RAS size: 64
Initialize SRRIP state
Heartbeat CPU 0 instructions: 10000003 cycles: 3956304 heartbeat IPC: 2.52761 cumulative IPC: 2.52761 (Simulation time: 0 hr 1 min 0 sec) 

Warmup complete CPU 0 instructions: 10000003 cycles: 3956304 (Simulation time: 0 hr 1 min 0 sec) 

Heartbeat CPU 0 instructions: 20000004 cycles: 61524067 heartbeat IPC: 0.173708 cumulative IPC: 0.173708 (Simulation time: 0 hr 3 min 20 sec) 
Heartbeat CPU 0 instructions: 30000001 cycles: 123859210 heartbeat IPC: 0.160423 cumulative IPC: 0.166802 (Simulation time: 0 hr 6 min 24 sec) 
Heartbeat CPU 0 instructions: 40000000 cycles: 182746131 heartbeat IPC: 0.169817 cumulative IPC: 0.167795 (Simulation time: 0 hr 9 min 21 sec) 
Heartbeat CPU 0 instructions: 50000001 cycles: 236680801 heartbeat IPC: 0.18541 cumulative IPC: 0.171877 (Simulation time: 0 hr 11 min 39 sec) 
Heartbeat CPU 0 instructions: 60000000 cycles: 295245727 heartbeat IPC: 0.170751 cumulative IPC: 0.171651 (Simulation time: 0 hr 14 min 24 sec) 
Heartbeat CPU 0 instructions: 70000000 cycles: 357238473 heartbeat IPC: 0.161309 cumulative IPC: 0.169836 (Simulation time: 0 hr 17 min 19 sec) 
Heartbeat CPU 0 instructions: 80000000 cycles: 415138526 heartbeat IPC: 0.172711 cumulative IPC: 0.170241 (Simulation time: 0 hr 19 min 47 sec) 
Heartbeat CPU 0 instructions: 90000001 cycles: 471392100 heartbeat IPC: 0.177767 cumulative IPC: 0.171146 (Simulation time: 0 hr 22 min 11 sec) 
Heartbeat CPU 0 instructions: 100000000 cycles: 529913821 heartbeat IPC: 0.170877 cumulative IPC: 0.171116 (Simulation time: 0 hr 24 min 41 sec) 
Heartbeat CPU 0 instructions: 110000000 cycles: 589194419 heartbeat IPC: 0.168689 cumulative IPC: 0.170871 (Simulation time: 0 hr 27 min 28 sec) 
Finished CPU 0 instructions: 100000001 cycles: 585238116 cumulative IPC: 0.170871 (Simulation time: 0 hr 27 min 28 sec) 

ChampSim completed all CPUs

Region of Interest Statistics

CPU 0 cumulative IPC: 0.170871 instructions: 100000001 cycles: 585238116
cpu0_DTLB TOTAL     ACCESS:   34330454  HIT:   30511888  MISS:    3818566
cpu0_DTLB LOAD      ACCESS:   26391482  HIT:   23769402  MISS:    2622080
cpu0_DTLB RFO       ACCESS:    7938972  HIT:    6742486  MISS:    1196486
cpu0_DTLB PREFETCH  ACCESS:          0  HIT:          0  MISS:          0
cpu0_DTLB WRITEBACK ACCESS:          0  HIT:          0  MISS:          0
cpu0_DTLB TRANSLATION ACCESS:          0  HIT:          0  MISS:          0
cpu0_DTLB PREFETCH  REQUESTED:          0  ISSUED:          0  USEFUL:          0  USELESS:          0
cpu0_DTLB AVERAGE MISS LATENCY: 181.137 cycles
cpu0_ITLB TOTAL     ACCESS:   11440165  HIT:   11440165  MISS:          0
cpu0_ITLB LOAD      ACCESS:   11440165  HIT:   11440165  MISS:          0
cpu0_ITLB RFO       ACCESS:          0  HIT:          0  MISS:          0
cpu0_ITLB PREFETCH  ACCESS:          0  HIT:          0  MISS:          0
cpu0_ITLB WRITEBACK ACCESS:          0  HIT:          0  MISS:          0
cpu0_ITLB TRANSLATION ACCESS:          0  HIT:          0  MISS:          0
cpu0_ITLB PREFETCH  REQUESTED:          0  ISSUED:          0  USEFUL:          0  USELESS:          0
cpu0_ITLB AVERAGE MISS LATENCY: -nan cycles
cpu0_L1I TOTAL     ACCESS:        129  HIT:        126  MISS:          3
cpu0_L1I LOAD      ACCESS:        129  HIT:        126  MISS:          3
cpu0_L1I RFO       ACCESS:          0  HIT:          0  MISS:          0
cpu0_L1I PREFETCH  ACCESS:          0  HIT:          0  MISS:          0
cpu0_L1I WRITEBACK ACCESS:          0  HIT:          0  MISS:          0
cpu0_L1I TRANSLATION ACCESS:          0  HIT:          0  MISS:          0
cpu0_L1I PREFETCH  REQUESTED:          0  ISSUED:          0  USEFUL:          0  USELESS:          0
cpu0_L1I AVERAGE MISS LATENCY: 199 cycles
cpu0_STLB TOTAL     ACCESS:    3818566  HIT:    1895981  MISS:    1922585
cpu0_STLB LOAD      ACCESS:    2622080  HIT:    1784408  MISS:     837672
cpu0_STLB RFO       ACCESS:    1196486  HIT:     111573  MISS:    1084913
cpu0_STLB PREFETCH  ACCESS:          0  HIT:          0  MISS:          0
cpu0_STLB WRITEBACK ACCESS:          0  HIT:          0  MISS:          0
cpu0_STLB TRANSLATION ACCESS:          0  HIT:          0  MISS:          0
cpu0_STLB PREFETCH  REQUESTED:          0  ISSUED:          0  USEFUL:          0  USELESS:          0
cpu0_STLB AVERAGE MISS LATENCY: 341.713 cycles
cpu0_L1D TOTAL     ACCESS:   35956923  HIT:   30104167  MISS:    5852756
cpu0_L1D LOAD      ACCESS:   24413875  HIT:   20482909  MISS:    3930966
cpu0_L1D RFO       ACCESS:   10121118  HIT:    8210464  MISS:    1910654
cpu0_L1D PREFETCH  ACCESS:          0  HIT:          0  MISS:          0
cpu0_L1D WRITEBACK ACCESS:          0  HIT:          0  MISS:          0
cpu0_L1D TRANSLATION ACCESS:    1421930  HIT:    1410794  MISS:      11136
cpu0_L1D PREFETCH  REQUESTED:          0  ISSUED:          0  USEFUL:          0  USELESS:          0
cpu0_L1D AVERAGE MISS LATENCY: 403.085 cycles
cpu0_L2C TOTAL     ACCESS:    8697475  HIT:    4509657  MISS:    4187818
cpu0_L2C LOAD      ACCESS:    3930958  HIT:    1549443  MISS:    2381515
cpu0_L2C RFO       ACCESS:    1910654  HIT:     106269  MISS:    1804385
cpu0_L2C PREFETCH  ACCESS:          0  HIT:          0  MISS:          0
cpu0_L2C WRITEBACK ACCESS:    2844727  HIT:    2844553  MISS:        174
cpu0_L2C TRANSLATION ACCESS:      11136  HIT:       9392  MISS:       1744
cpu0_L2C PREFETCH  REQUESTED:          0  ISSUED:          0  USEFUL:          0  USELESS:          0
cpu0_L2C AVERAGE MISS LATENCY: 547.932 cycles
LLC TOTAL     ACCESS:    6918198  HIT:    2585045  MISS:    4333153
LLC LOAD      ACCESS:    2381515  HIT:     429067  MISS:    1952448
LLC RFO       ACCESS:    1804382  HIT:     610337  MISS:    1194045
LLC PREFETCH  ACCESS:          0  HIT:          0  MISS:          0
LLC WRITEBACK ACCESS:    2730557  HIT:    1544055  MISS:    1186502
LLC TRANSLATION ACCESS:       1744  HIT:       1586  MISS:        158
LLC PREFETCH  REQUESTED:          0  ISSUED:          0  USEFUL:          0  USELESS:          0
LLC AVERAGE MISS LATENCY: 509.255 cycles
Insertion Distribution: 
	LOAD 207717 135799 1819871 
	RFO 125556 177490 1166479 
	PREF 0 0 0 
	WRITEBACK 0 0 1438299 
	 26 48 129 
Total Prefetch Downgrades: 0

DRAM Statistics
 CHANNEL 0
 RQ ROW_BUFFER_HIT:      24650  ROW_BUFFER_MISS:    3121101
 DBUS AVG_CONGESTED_CYCLE:    3.99932
 WQ ROW_BUFFER_HIT:     213236  ROW_BUFFER_MISS:    1495468  FULL:      37370


CPU 0 Branch Prediction Accuracy: 88.672% MPKI: 23.9003 Average ROB Occupancy at Mispredict: 22.8517
Branch type MPKI
BRANCH_DIRECT_JUMP: 1e-05
BRANCH_INDIRECT: 0
BRANCH_CONDITIONAL: 23.8999
BRANCH_DIRECT_CALL: 0
BRANCH_INDIRECT_CALL: 0.00038
BRANCH_RETURN: 0

