
*** ChampSim Multicore Out-of-Order Simulator ***

Warmup Instructions: 10000000
Simulation Instructions: 100000000
Number of CPUs: 1
Off-chip DRAM Size: 4 GiB Channels: 1 Width: 64-bit Data Rate: 3200 MT/s

VirtualMemory physical capacity: 8588881920 num_ppages: 2096895
VirtualMemory page size: 4096 log2_page_size: 12

CPU 0 runs /datasets/cs240c-wi22-a00-public/data/Assignment2/cactusADM_734B.trace.xz
CPU 0 Bimodal branch predictor
Basic BTB sets: 1024 ways: 8 indirect buffer size: 4096 RAS size: 64
Initialize SRRIP state
Heartbeat CPU 0 instructions: 10000002 cycles: 3647078 heartbeat IPC: 2.74192 cumulative IPC: 2.74192 (Simulation time: 0 hr 1 min 2 sec) 

Warmup complete CPU 0 instructions: 10000002 cycles: 3647078 (Simulation time: 0 hr 1 min 2 sec) 

Heartbeat CPU 0 instructions: 20000004 cycles: 13580631 heartbeat IPC: 1.00669 cumulative IPC: 1.00669 (Simulation time: 0 hr 2 min 56 sec) 
Heartbeat CPU 0 instructions: 30000000 cycles: 22708098 heartbeat IPC: 1.09559 cumulative IPC: 1.04926 (Simulation time: 0 hr 4 min 45 sec) 
Heartbeat CPU 0 instructions: 40000004 cycles: 32422653 heartbeat IPC: 1.02938 cumulative IPC: 1.04255 (Simulation time: 0 hr 6 min 36 sec) 
Heartbeat CPU 0 instructions: 50000001 cycles: 41391816 heartbeat IPC: 1.11493 cumulative IPC: 1.05975 (Simulation time: 0 hr 8 min 24 sec) 
Heartbeat CPU 0 instructions: 60000002 cycles: 47562580 heartbeat IPC: 1.62055 cumulative IPC: 1.13855 (Simulation time: 0 hr 9 min 54 sec) 
Heartbeat CPU 0 instructions: 70000003 cycles: 56830774 heartbeat IPC: 1.07896 cumulative IPC: 1.12817 (Simulation time: 0 hr 11 min 42 sec) 
Heartbeat CPU 0 instructions: 80000004 cycles: 65520657 heartbeat IPC: 1.15076 cumulative IPC: 1.13134 (Simulation time: 0 hr 13 min 27 sec) 
Heartbeat CPU 0 instructions: 90000000 cycles: 74661844 heartbeat IPC: 1.09395 cumulative IPC: 1.12653 (Simulation time: 0 hr 15 min 14 sec) 
Heartbeat CPU 0 instructions: 100000004 cycles: 80966895 heartbeat IPC: 1.58603 cumulative IPC: 1.164 (Simulation time: 0 hr 16 min 45 sec) 
Heartbeat CPU 0 instructions: 110000001 cycles: 89464802 heartbeat IPC: 1.17676 cumulative IPC: 1.16526 (Simulation time: 0 hr 18 min 29 sec) 
Finished CPU 0 instructions: 100000004 cycles: 85817725 cumulative IPC: 1.16526 (Simulation time: 0 hr 18 min 29 sec) 

ChampSim completed all CPUs

Region of Interest Statistics

CPU 0 cumulative IPC: 1.16526 instructions: 100000004 cycles: 85817725
cpu0_DTLB TOTAL     ACCESS:   21671262  HIT:   19825783  MISS:    1845479
cpu0_DTLB LOAD      ACCESS:   17797325  HIT:   16540077  MISS:    1257248
cpu0_DTLB RFO       ACCESS:    3873937  HIT:    3285706  MISS:     588231
cpu0_DTLB PREFETCH  ACCESS:          0  HIT:          0  MISS:          0
cpu0_DTLB WRITEBACK ACCESS:          0  HIT:          0  MISS:          0
cpu0_DTLB TRANSLATION ACCESS:          0  HIT:          0  MISS:          0
cpu0_DTLB PREFETCH  REQUESTED:          0  ISSUED:          0  USEFUL:          0  USELESS:          0
cpu0_DTLB AVERAGE MISS LATENCY: 17.8276 cycles
cpu0_ITLB TOTAL     ACCESS:    1528051  HIT:    1528051  MISS:          0
cpu0_ITLB LOAD      ACCESS:    1528051  HIT:    1528051  MISS:          0
cpu0_ITLB RFO       ACCESS:          0  HIT:          0  MISS:          0
cpu0_ITLB PREFETCH  ACCESS:          0  HIT:          0  MISS:          0
cpu0_ITLB WRITEBACK ACCESS:          0  HIT:          0  MISS:          0
cpu0_ITLB TRANSLATION ACCESS:          0  HIT:          0  MISS:          0
cpu0_ITLB PREFETCH  REQUESTED:          0  ISSUED:          0  USEFUL:          0  USELESS:          0
cpu0_ITLB AVERAGE MISS LATENCY: -nan cycles
cpu0_L1I TOTAL     ACCESS:    7866079  HIT:    7866076  MISS:          3
cpu0_L1I LOAD      ACCESS:    7866079  HIT:    7866076  MISS:          3
cpu0_L1I RFO       ACCESS:          0  HIT:          0  MISS:          0
cpu0_L1I PREFETCH  ACCESS:          0  HIT:          0  MISS:          0
cpu0_L1I WRITEBACK ACCESS:          0  HIT:          0  MISS:          0
cpu0_L1I TRANSLATION ACCESS:          0  HIT:          0  MISS:          0
cpu0_L1I PREFETCH  REQUESTED:          0  ISSUED:          0  USEFUL:          0  USELESS:          0
cpu0_L1I AVERAGE MISS LATENCY: 773.333 cycles
cpu0_STLB TOTAL     ACCESS:    1845479  HIT:     893480  MISS:     951999
cpu0_STLB LOAD      ACCESS:    1257248  HIT:     641962  MISS:     615286
cpu0_STLB RFO       ACCESS:     588231  HIT:     251518  MISS:     336713
cpu0_STLB PREFETCH  ACCESS:          0  HIT:          0  MISS:          0
cpu0_STLB WRITEBACK ACCESS:          0  HIT:          0  MISS:          0
cpu0_STLB TRANSLATION ACCESS:          0  HIT:          0  MISS:          0
cpu0_STLB PREFETCH  REQUESTED:          0  ISSUED:          0  USEFUL:          0  USELESS:          0
cpu0_STLB AVERAGE MISS LATENCY: 16.9893 cycles
cpu0_L1D TOTAL     ACCESS:   37587817  HIT:   36267600  MISS:    1320217
cpu0_L1D LOAD      ACCESS:   25670445  HIT:   24619738  MISS:    1050707
cpu0_L1D RFO       ACCESS:   10966353  HIT:   10702205  MISS:     264148
cpu0_L1D PREFETCH  ACCESS:          0  HIT:          0  MISS:          0
cpu0_L1D WRITEBACK ACCESS:          0  HIT:          0  MISS:          0
cpu0_L1D TRANSLATION ACCESS:     951019  HIT:     945657  MISS:       5362
cpu0_L1D PREFETCH  REQUESTED:          0  ISSUED:          0  USEFUL:          0  USELESS:          0
cpu0_L1D AVERAGE MISS LATENCY: 303.673 cycles
cpu0_L2C TOTAL     ACCESS:    1588176  HIT:     691767  MISS:     896409
cpu0_L2C LOAD      ACCESS:    1050710  HIT:     418900  MISS:     631810
cpu0_L2C RFO       ACCESS:     264148  HIT:          0  MISS:     264148
cpu0_L2C PREFETCH  ACCESS:          0  HIT:          0  MISS:          0
cpu0_L2C WRITEBACK ACCESS:     267956  HIT:     267758  MISS:        198
cpu0_L2C TRANSLATION ACCESS:       5362  HIT:       5109  MISS:        253
cpu0_L2C PREFETCH  REQUESTED:          0  ISSUED:          0  USEFUL:          0  USELESS:          0
cpu0_L2C AVERAGE MISS LATENCY: 431.026 cycles
LLC TOTAL     ACCESS:    1162869  HIT:     334755  MISS:     828114
LLC LOAD      ACCESS:     631810  HIT:     153007  MISS:     478803
LLC RFO       ACCESS:     264148  HIT:      75763  MISS:     188385
LLC PREFETCH  ACCESS:          0  HIT:          0  MISS:          0
LLC WRITEBACK ACCESS:     266658  HIT:     105967  MISS:     160691
LLC TRANSLATION ACCESS:        253  HIT:         18  MISS:        235
LLC PREFETCH  REQUESTED:          0  ISSUED:          0  USEFUL:          0  USELESS:          0
LLC AVERAGE MISS LATENCY: 443.845 cycles
Insertion Distribution: 
	LOAD 60829 78273 390889 
	RFO 13440 20676 166762 
	PREF 0 0 0 
	WRITEBACK 0 0 162965 
	 0 53 224 
Total Prefetch Downgrades: 0

DRAM Statistics
 CHANNEL 0
 RQ ROW_BUFFER_HIT:       6469  ROW_BUFFER_MISS:     660929
 DBUS AVG_CONGESTED_CYCLE:    3.97803
 WQ ROW_BUFFER_HIT:      17805  ROW_BUFFER_MISS:     209854  FULL:        298


CPU 0 Branch Prediction Accuracy: 97.7528% MPKI: 0.04677 Average ROB Occupancy at Mispredict: 283.768
Branch type MPKI
BRANCH_DIRECT_JUMP: 0
BRANCH_INDIRECT: 0
BRANCH_CONDITIONAL: 0.04677
BRANCH_DIRECT_CALL: 0
BRANCH_INDIRECT_CALL: 0
BRANCH_RETURN: 0

