
*** ChampSim Multicore Out-of-Order Simulator ***

Warmup Instructions: 10000000
Simulation Instructions: 100000000
Number of CPUs: 1
Off-chip DRAM Size: 4 GiB Channels: 1 Width: 64-bit Data Rate: 3200 MT/s

VirtualMemory physical capacity: 8588881920 num_ppages: 2096895
VirtualMemory page size: 4096 log2_page_size: 12

CPU 0 runs /datasets/cs240c-wi22-a00-public/data/Assignment2/libquantum_1735B.trace.xz
CPU 0 Bimodal branch predictor
Basic BTB sets: 1024 ways: 8 indirect buffer size: 4096 RAS size: 64
Initialize SRRIP state
Heartbeat CPU 0 instructions: 10000002 cycles: 2500058 heartbeat IPC: 3.99991 cumulative IPC: 3.99991 (Simulation time: 0 hr 0 min 26 sec) 

Warmup complete CPU 0 instructions: 10000002 cycles: 2500058 (Simulation time: 0 hr 0 min 26 sec) 

Heartbeat CPU 0 instructions: 20000003 cycles: 36696351 heartbeat IPC: 0.292429 cumulative IPC: 0.292429 (Simulation time: 0 hr 1 min 45 sec) 
Heartbeat CPU 0 instructions: 30000001 cycles: 70597176 heartbeat IPC: 0.294978 cumulative IPC: 0.293698 (Simulation time: 0 hr 2 min 59 sec) 
Heartbeat CPU 0 instructions: 40000003 cycles: 109784217 heartbeat IPC: 0.255186 cumulative IPC: 0.279631 (Simulation time: 0 hr 4 min 20 sec) 
Heartbeat CPU 0 instructions: 50000002 cycles: 147200363 heartbeat IPC: 0.267264 cumulative IPC: 0.276433 (Simulation time: 0 hr 5 min 38 sec) 
Heartbeat CPU 0 instructions: 60000001 cycles: 152224682 heartbeat IPC: 1.99032 cumulative IPC: 0.333946 (Simulation time: 0 hr 6 min 29 sec) 
Heartbeat CPU 0 instructions: 70000002 cycles: 157546096 heartbeat IPC: 1.8792 cumulative IPC: 0.386982 (Simulation time: 0 hr 7 min 22 sec) 
Heartbeat CPU 0 instructions: 80000000 cycles: 196834393 heartbeat IPC: 0.254529 cumulative IPC: 0.360204 (Simulation time: 0 hr 8 min 44 sec) 
Heartbeat CPU 0 instructions: 90000000 cycles: 231746402 heartbeat IPC: 0.286434 cumulative IPC: 0.34897 (Simulation time: 0 hr 9 min 59 sec) 
Heartbeat CPU 0 instructions: 100000000 cycles: 289253013 heartbeat IPC: 0.173893 cumulative IPC: 0.313859 (Simulation time: 0 hr 11 min 41 sec) 
Heartbeat CPU 0 instructions: 110000003 cycles: 325701673 heartbeat IPC: 0.274359 cumulative IPC: 0.309404 (Simulation time: 0 hr 13 min 4 sec) 
Finished CPU 0 instructions: 100000001 cycles: 323201615 cumulative IPC: 0.309404 (Simulation time: 0 hr 13 min 4 sec) 

ChampSim completed all CPUs

Region of Interest Statistics

CPU 0 cumulative IPC: 0.309404 instructions: 100000001 cycles: 323201615
cpu0_DTLB TOTAL     ACCESS:    9945049  HIT:    9901446  MISS:      43603
cpu0_DTLB LOAD      ACCESS:    8311963  HIT:    8268365  MISS:      43598
cpu0_DTLB RFO       ACCESS:    1633086  HIT:    1633081  MISS:          5
cpu0_DTLB PREFETCH  ACCESS:          0  HIT:          0  MISS:          0
cpu0_DTLB WRITEBACK ACCESS:          0  HIT:          0  MISS:          0
cpu0_DTLB TRANSLATION ACCESS:          0  HIT:          0  MISS:          0
cpu0_DTLB PREFETCH  REQUESTED:          0  ISSUED:          0  USEFUL:          0  USELESS:          0
cpu0_DTLB AVERAGE MISS LATENCY: 35.7879 cycles
cpu0_ITLB TOTAL     ACCESS:    4579402  HIT:    4579402  MISS:          0
cpu0_ITLB LOAD      ACCESS:    4579402  HIT:    4579402  MISS:          0
cpu0_ITLB RFO       ACCESS:          0  HIT:          0  MISS:          0
cpu0_ITLB PREFETCH  ACCESS:          0  HIT:          0  MISS:          0
cpu0_ITLB WRITEBACK ACCESS:          0  HIT:          0  MISS:          0
cpu0_ITLB TRANSLATION ACCESS:          0  HIT:          0  MISS:          0
cpu0_ITLB PREFETCH  REQUESTED:          0  ISSUED:          0  USEFUL:          0  USELESS:          0
cpu0_ITLB AVERAGE MISS LATENCY: -nan cycles
cpu0_L1I TOTAL     ACCESS:         20  HIT:         11  MISS:          9
cpu0_L1I LOAD      ACCESS:         20  HIT:         11  MISS:          9
cpu0_L1I RFO       ACCESS:          0  HIT:          0  MISS:          0
cpu0_L1I PREFETCH  ACCESS:          0  HIT:          0  MISS:          0
cpu0_L1I WRITEBACK ACCESS:          0  HIT:          0  MISS:          0
cpu0_L1I TRANSLATION ACCESS:          0  HIT:          0  MISS:          0
cpu0_L1I PREFETCH  REQUESTED:          0  ISSUED:          0  USEFUL:          0  USELESS:          0
cpu0_L1I AVERAGE MISS LATENCY: 283.556 cycles
cpu0_STLB TOTAL     ACCESS:      43603  HIT:          0  MISS:      43603
cpu0_STLB LOAD      ACCESS:      43598  HIT:          0  MISS:      43598
cpu0_STLB RFO       ACCESS:          5  HIT:          0  MISS:          5
cpu0_STLB PREFETCH  ACCESS:          0  HIT:          0  MISS:          0
cpu0_STLB WRITEBACK ACCESS:          0  HIT:          0  MISS:          0
cpu0_STLB TRANSLATION ACCESS:          0  HIT:          0  MISS:          0
cpu0_STLB PREFETCH  REQUESTED:          0  ISSUED:          0  USEFUL:          0  USELESS:          0
cpu0_STLB AVERAGE MISS LATENCY: 26.7879 cycles
cpu0_L1D TOTAL     ACCESS:    6545946  HIT:    3756513  MISS:    2789433
cpu0_L1D LOAD      ACCESS:    4613838  HIT:    1824455  MISS:    2789383
cpu0_L1D RFO       ACCESS:    1888505  HIT:    1888485  MISS:         20
cpu0_L1D PREFETCH  ACCESS:          0  HIT:          0  MISS:          0
cpu0_L1D WRITEBACK ACCESS:          0  HIT:          0  MISS:          0
cpu0_L1D TRANSLATION ACCESS:      43603  HIT:      43573  MISS:         30
cpu0_L1D PREFETCH  REQUESTED:          0  ISSUED:          0  USEFUL:          0  USELESS:          0
cpu0_L1D AVERAGE MISS LATENCY: 163.723 cycles
cpu0_L2C TOTAL     ACCESS:    3804021  HIT:    1014579  MISS:    2789442
cpu0_L2C LOAD      ACCESS:    2789392  HIT:          0  MISS:    2789392
cpu0_L2C RFO       ACCESS:         20  HIT:          0  MISS:         20
cpu0_L2C PREFETCH  ACCESS:          0  HIT:          0  MISS:          0
cpu0_L2C WRITEBACK ACCESS:    1014579  HIT:    1014579  MISS:          0
cpu0_L2C TRANSLATION ACCESS:         30  HIT:          0  MISS:         30
cpu0_L2C PREFETCH  REQUESTED:          0  ISSUED:          0  USEFUL:          0  USELESS:          0
cpu0_L2C AVERAGE MISS LATENCY: 152.72 cycles
LLC TOTAL     ACCESS:    3798498  HIT:     236805  MISS:    3561693
LLC LOAD      ACCESS:    2789392  HIT:     128077  MISS:    2661315
LLC RFO       ACCESS:         20  HIT:          4  MISS:         16
LLC PREFETCH  ACCESS:          0  HIT:          0  MISS:          0
LLC WRITEBACK ACCESS:    1009056  HIT:     108720  MISS:     900336
LLC TRANSLATION ACCESS:         30  HIT:          4  MISS:         26
LLC PREFETCH  REQUESTED:          0  ISSUED:          0  USEFUL:          0  USELESS:          0
LLC AVERAGE MISS LATENCY: 103.16 cycles
Insertion Distribution: 
	LOAD 58767 153126 2713495 
	RFO 0 20 0 
	PREF 0 0 0 
	WRITEBACK 0 0 1023914 
	 0 22 17 
Total Prefetch Downgrades: 0

DRAM Statistics
 CHANNEL 0
 RQ ROW_BUFFER_HIT:    1366493  ROW_BUFFER_MISS:    1294738
 DBUS AVG_CONGESTED_CYCLE:    3.75339
 WQ ROW_BUFFER_HIT:     319120  ROW_BUFFER_MISS:     652844  FULL:        494


CPU 0 Branch Prediction Accuracy: 89.0086% MPKI: 24.5272 Average ROB Occupancy at Mispredict: 3.9152
Branch type MPKI
BRANCH_DIRECT_JUMP: 2e-05
BRANCH_INDIRECT: 0
BRANCH_CONDITIONAL: 24.527
BRANCH_DIRECT_CALL: 8e-05
BRANCH_INDIRECT_CALL: 0
BRANCH_RETURN: 8e-05

