
*** ChampSim Multicore Out-of-Order Simulator ***

Warmup Instructions: 10000000
Simulation Instructions: 100000000
Number of CPUs: 1
Off-chip DRAM Size: 4 GiB Channels: 1 Width: 64-bit Data Rate: 3200 MT/s

VirtualMemory physical capacity: 8588881920 num_ppages: 2096895
VirtualMemory page size: 4096 log2_page_size: 12

CPU 0 runs /datasets/cs240c-wi22-a00-public/data/Assignment2/sphinx3_2520B.trace.xz
CPU 0 Bimodal branch predictor
Basic BTB sets: 1024 ways: 8 indirect buffer size: 4096 RAS size: 64
Initialize SRRIP state
Heartbeat CPU 0 instructions: 10000000 cycles: 2589701 heartbeat IPC: 3.86145 cumulative IPC: 3.86145 (Simulation time: 0 hr 0 min 31 sec) 

Warmup complete CPU 0 instructions: 10000004 cycles: 2589702 (Simulation time: 0 hr 0 min 31 sec) 

Heartbeat CPU 0 instructions: 20000002 cycles: 8760326 heartbeat IPC: 1.62058 cumulative IPC: 1.62058 (Simulation time: 0 hr 1 min 17 sec) 
Heartbeat CPU 0 instructions: 30000000 cycles: 14924737 heartbeat IPC: 1.62221 cumulative IPC: 1.6214 (Simulation time: 0 hr 2 min 2 sec) 
Heartbeat CPU 0 instructions: 40000001 cycles: 20433336 heartbeat IPC: 1.81534 cumulative IPC: 1.68127 (Simulation time: 0 hr 2 min 46 sec) 
Heartbeat CPU 0 instructions: 50000002 cycles: 26062930 heartbeat IPC: 1.77633 cumulative IPC: 1.70407 (Simulation time: 0 hr 3 min 30 sec) 
Heartbeat CPU 0 instructions: 60000001 cycles: 31543213 heartbeat IPC: 1.82472 cumulative IPC: 1.72691 (Simulation time: 0 hr 4 min 12 sec) 
Heartbeat CPU 0 instructions: 70000004 cycles: 36926168 heartbeat IPC: 1.85772 cumulative IPC: 1.74741 (Simulation time: 0 hr 4 min 55 sec) 
Heartbeat CPU 0 instructions: 80000000 cycles: 42310974 heartbeat IPC: 1.85708 cumulative IPC: 1.76228 (Simulation time: 0 hr 5 min 37 sec) 
Heartbeat CPU 0 instructions: 90000003 cycles: 47741841 heartbeat IPC: 1.84133 cumulative IPC: 1.77179 (Simulation time: 0 hr 6 min 21 sec) 
Heartbeat CPU 0 instructions: 100000002 cycles: 53352820 heartbeat IPC: 1.78222 cumulative IPC: 1.77294 (Simulation time: 0 hr 7 min 4 sec) 
Heartbeat CPU 0 instructions: 110000004 cycles: 61622469 heartbeat IPC: 1.20924 cumulative IPC: 1.69397 (Simulation time: 0 hr 7 min 59 sec) 
Finished CPU 0 instructions: 100000000 cycles: 59032767 cumulative IPC: 1.69397 (Simulation time: 0 hr 7 min 59 sec) 

ChampSim completed all CPUs

Region of Interest Statistics

CPU 0 cumulative IPC: 1.69397 instructions: 100000000 cycles: 59032767
cpu0_DTLB TOTAL     ACCESS:   16034248  HIT:   15978377  MISS:      55871
cpu0_DTLB LOAD      ACCESS:   14997529  HIT:   14945016  MISS:      52513
cpu0_DTLB RFO       ACCESS:    1036719  HIT:    1033361  MISS:       3358
cpu0_DTLB PREFETCH  ACCESS:          0  HIT:          0  MISS:          0
cpu0_DTLB WRITEBACK ACCESS:          0  HIT:          0  MISS:          0
cpu0_DTLB TRANSLATION ACCESS:          0  HIT:          0  MISS:          0
cpu0_DTLB PREFETCH  REQUESTED:          0  ISSUED:          0  USEFUL:          0  USELESS:          0
cpu0_DTLB AVERAGE MISS LATENCY: 11.3178 cycles
cpu0_ITLB TOTAL     ACCESS:    9558440  HIT:    9558398  MISS:         42
cpu0_ITLB LOAD      ACCESS:    9558440  HIT:    9558398  MISS:         42
cpu0_ITLB RFO       ACCESS:          0  HIT:          0  MISS:          0
cpu0_ITLB PREFETCH  ACCESS:          0  HIT:          0  MISS:          0
cpu0_ITLB WRITEBACK ACCESS:          0  HIT:          0  MISS:          0
cpu0_ITLB TRANSLATION ACCESS:          0  HIT:          0  MISS:          0
cpu0_ITLB PREFETCH  REQUESTED:          0  ISSUED:          0  USEFUL:          0  USELESS:          0
cpu0_ITLB AVERAGE MISS LATENCY: 151.452 cycles
cpu0_L1I TOTAL     ACCESS:     267823  HIT:     266524  MISS:       1299
cpu0_L1I LOAD      ACCESS:     267823  HIT:     266524  MISS:       1299
cpu0_L1I RFO       ACCESS:          0  HIT:          0  MISS:          0
cpu0_L1I PREFETCH  ACCESS:          0  HIT:          0  MISS:          0
cpu0_L1I WRITEBACK ACCESS:          0  HIT:          0  MISS:          0
cpu0_L1I TRANSLATION ACCESS:          0  HIT:          0  MISS:          0
cpu0_L1I PREFETCH  REQUESTED:          0  ISSUED:          0  USEFUL:          0  USELESS:          0
cpu0_L1I AVERAGE MISS LATENCY: 156.674 cycles
cpu0_STLB TOTAL     ACCESS:      55913  HIT:      51106  MISS:       4807
cpu0_STLB LOAD      ACCESS:      52555  HIT:      47881  MISS:       4674
cpu0_STLB RFO       ACCESS:       3358  HIT:       3225  MISS:        133
cpu0_STLB PREFETCH  ACCESS:          0  HIT:          0  MISS:          0
cpu0_STLB WRITEBACK ACCESS:          0  HIT:          0  MISS:          0
cpu0_STLB TRANSLATION ACCESS:          0  HIT:          0  MISS:          0
cpu0_STLB PREFETCH  REQUESTED:          0  ISSUED:          0  USEFUL:          0  USELESS:          0
cpu0_STLB AVERAGE MISS LATENCY: 27.6626 cycles
cpu0_L1D TOTAL     ACCESS:   11720014  HIT:   10380622  MISS:    1339392
cpu0_L1D LOAD      ACCESS:   10375176  HIT:    9161433  MISS:    1213743
cpu0_L1D RFO       ACCESS:    1340309  HIT:    1214774  MISS:     125535
cpu0_L1D PREFETCH  ACCESS:          0  HIT:          0  MISS:          0
cpu0_L1D WRITEBACK ACCESS:          0  HIT:          0  MISS:          0
cpu0_L1D TRANSLATION ACCESS:       4529  HIT:       4415  MISS:        114
cpu0_L1D PREFETCH  REQUESTED:          0  ISSUED:          0  USEFUL:          0  USELESS:          0
cpu0_L1D AVERAGE MISS LATENCY: 65.4199 cycles
cpu0_L2C TOTAL     ACCESS:    1472904  HIT:     251133  MISS:    1221771
cpu0_L2C LOAD      ACCESS:    1215042  HIT:     113628  MISS:    1101414
cpu0_L2C RFO       ACCESS:     125535  HIT:       5425  MISS:     120110
cpu0_L2C PREFETCH  ACCESS:          0  HIT:          0  MISS:          0
cpu0_L2C WRITEBACK ACCESS:     132213  HIT:     132051  MISS:        162
cpu0_L2C TRANSLATION ACCESS:        114  HIT:         29  MISS:         85
cpu0_L2C PREFETCH  REQUESTED:          0  ISSUED:          0  USEFUL:          0  USELESS:          0
cpu0_L2C AVERAGE MISS LATENCY: 59.7934 cycles
LLC TOTAL     ACCESS:    1348263  HIT:    1025339  MISS:     322924
LLC LOAD      ACCESS:    1101414  HIT:     798903  MISS:     302511
LLC RFO       ACCESS:     120110  HIT:     107546  MISS:      12564
LLC PREFETCH  ACCESS:          0  HIT:          0  MISS:          0
LLC WRITEBACK ACCESS:     126654  HIT:     118832  MISS:       7822
LLC TRANSLATION ACCESS:         85  HIT:         58  MISS:         27
LLC PREFETCH  REQUESTED:          0  ISSUED:          0  USEFUL:          0  USELESS:          0
LLC AVERAGE MISS LATENCY: 146.77 cycles
Insertion Distribution: 
	LOAD 19081 84929 278774 
	RFO 3672 5904 7868 
	PREF 0 0 0 
	WRITEBACK 0 0 7898 
	 4 38 2 
Total Prefetch Downgrades: 0

DRAM Statistics
 CHANNEL 0
 RQ ROW_BUFFER_HIT:     112650  ROW_BUFFER_MISS:     202074
 DBUS AVG_CONGESTED_CYCLE:    3.81763
 WQ ROW_BUFFER_HIT:       7136  ROW_BUFFER_MISS:       6833  FULL:          0


CPU 0 Branch Prediction Accuracy: 93.1904% MPKI: 5.9173 Average ROB Occupancy at Mispredict: 187.558
Branch type MPKI
BRANCH_DIRECT_JUMP: 0.00106
BRANCH_INDIRECT: 0
BRANCH_CONDITIONAL: 5.91482
BRANCH_DIRECT_CALL: 0.00069
BRANCH_INDIRECT_CALL: 3e-05
BRANCH_RETURN: 0.0007

