
*** ChampSim Multicore Out-of-Order Simulator ***

Warmup Instructions: 10000000
Simulation Instructions: 100000000
Number of CPUs: 1
Off-chip DRAM Size: 4 GiB Channels: 1 Width: 64-bit Data Rate: 3200 MT/s

VirtualMemory physical capacity: 8588881920 num_ppages: 2096895
VirtualMemory page size: 4096 log2_page_size: 12

CPU 0 runs /datasets/cs240c-wi22-a00-public/data/Assignment2/h264ref_178B.trace.xz
CPU 0 Bimodal branch predictor
Basic BTB sets: 1024 ways: 8 indirect buffer size: 4096 RAS size: 64
Heartbeat CPU 0 instructions: 10000000 cycles: 3417071 heartbeat IPC: 2.92648 cumulative IPC: 2.92648 (Simulation time: 0 hr 0 min 46 sec) 

Warmup complete CPU 0 instructions: 10000002 cycles: 3417073 (Simulation time: 0 hr 0 min 46 sec) 

Heartbeat CPU 0 instructions: 20000003 cycles: 9539906 heartbeat IPC: 1.63323 cumulative IPC: 1.63323 (Simulation time: 0 hr 1 min 49 sec) 
Heartbeat CPU 0 instructions: 30000002 cycles: 15260024 heartbeat IPC: 1.74822 cumulative IPC: 1.68877 (Simulation time: 0 hr 2 min 48 sec) 
Heartbeat CPU 0 instructions: 40000002 cycles: 21127092 heartbeat IPC: 1.70443 cumulative IPC: 1.69396 (Simulation time: 0 hr 3 min 31 sec) 
Heartbeat CPU 0 instructions: 50000004 cycles: 28415189 heartbeat IPC: 1.3721 cumulative IPC: 1.60012 (Simulation time: 0 hr 4 min 23 sec) 
Heartbeat CPU 0 instructions: 60000004 cycles: 34570326 heartbeat IPC: 1.62466 cumulative IPC: 1.60497 (Simulation time: 0 hr 5 min 28 sec) 
Heartbeat CPU 0 instructions: 70000003 cycles: 40133553 heartbeat IPC: 1.79752 cumulative IPC: 1.63414 (Simulation time: 0 hr 6 min 21 sec) 
Heartbeat CPU 0 instructions: 80000001 cycles: 48018873 heartbeat IPC: 1.26818 cumulative IPC: 1.56944 (Simulation time: 0 hr 7 min 1 sec) 
Heartbeat CPU 0 instructions: 90000004 cycles: 54352033 heartbeat IPC: 1.57899 cumulative IPC: 1.57063 (Simulation time: 0 hr 7 min 59 sec) 
Heartbeat CPU 0 instructions: 100000000 cycles: 60422223 heartbeat IPC: 1.64739 cumulative IPC: 1.5788 (Simulation time: 0 hr 8 min 58 sec) 
Heartbeat CPU 0 instructions: 110000003 cycles: 66513913 heartbeat IPC: 1.64158 cumulative IPC: 1.58487 (Simulation time: 0 hr 9 min 44 sec) 
Finished CPU 0 instructions: 100000001 cycles: 63096840 cumulative IPC: 1.58487 (Simulation time: 0 hr 9 min 44 sec) 

ChampSim completed all CPUs

Region of Interest Statistics

CPU 0 cumulative IPC: 1.58487 instructions: 100000001 cycles: 63096840
cpu0_DTLB TOTAL     ACCESS:   21807837  HIT:   21681130  MISS:     126707
cpu0_DTLB LOAD      ACCESS:   18465545  HIT:   18371907  MISS:      93638
cpu0_DTLB RFO       ACCESS:    3342292  HIT:    3309223  MISS:      33069
cpu0_DTLB PREFETCH  ACCESS:          0  HIT:          0  MISS:          0
cpu0_DTLB WRITEBACK ACCESS:          0  HIT:          0  MISS:          0
cpu0_DTLB TRANSLATION ACCESS:          0  HIT:          0  MISS:          0
cpu0_DTLB PREFETCH  REQUESTED:          0  ISSUED:          0  USEFUL:          0  USELESS:          0
cpu0_DTLB AVERAGE MISS LATENCY: 9.90799 cycles
cpu0_ITLB TOTAL     ACCESS:    5561249  HIT:    5560906  MISS:        343
cpu0_ITLB LOAD      ACCESS:    5561249  HIT:    5560906  MISS:        343
cpu0_ITLB RFO       ACCESS:          0  HIT:          0  MISS:          0
cpu0_ITLB PREFETCH  ACCESS:          0  HIT:          0  MISS:          0
cpu0_ITLB WRITEBACK ACCESS:          0  HIT:          0  MISS:          0
cpu0_ITLB TRANSLATION ACCESS:          0  HIT:          0  MISS:          0
cpu0_ITLB PREFETCH  REQUESTED:          0  ISSUED:          0  USEFUL:          0  USELESS:          0
cpu0_ITLB AVERAGE MISS LATENCY: 10.758 cycles
cpu0_L1I TOTAL     ACCESS:    5687120  HIT:    5672608  MISS:      14512
cpu0_L1I LOAD      ACCESS:    5687120  HIT:    5672608  MISS:      14512
cpu0_L1I RFO       ACCESS:          0  HIT:          0  MISS:          0
cpu0_L1I PREFETCH  ACCESS:          0  HIT:          0  MISS:          0
cpu0_L1I WRITEBACK ACCESS:          0  HIT:          0  MISS:          0
cpu0_L1I TRANSLATION ACCESS:          0  HIT:          0  MISS:          0
cpu0_L1I PREFETCH  REQUESTED:          0  ISSUED:          0  USEFUL:          0  USELESS:          0
cpu0_L1I AVERAGE MISS LATENCY: 59.1907 cycles
cpu0_STLB TOTAL     ACCESS:     127050  HIT:     126282  MISS:        768
cpu0_STLB LOAD      ACCESS:      93981  HIT:      93604  MISS:        377
cpu0_STLB RFO       ACCESS:      33069  HIT:      32678  MISS:        391
cpu0_STLB PREFETCH  ACCESS:          0  HIT:          0  MISS:          0
cpu0_STLB WRITEBACK ACCESS:          0  HIT:          0  MISS:          0
cpu0_STLB TRANSLATION ACCESS:          0  HIT:          0  MISS:          0
cpu0_STLB PREFETCH  REQUESTED:          0  ISSUED:          0  USEFUL:          0  USELESS:          0
cpu0_STLB AVERAGE MISS LATENCY: 149.198 cycles
cpu0_L1D TOTAL     ACCESS:   23016420  HIT:   22703428  MISS:     312992
cpu0_L1D LOAD      ACCESS:   17154261  HIT:   16932089  MISS:     222172
cpu0_L1D RFO       ACCESS:    5861479  HIT:    5770794  MISS:      90685
cpu0_L1D PREFETCH  ACCESS:          0  HIT:          0  MISS:          0
cpu0_L1D WRITEBACK ACCESS:          0  HIT:          0  MISS:          0
cpu0_L1D TRANSLATION ACCESS:        680  HIT:        545  MISS:        135
cpu0_L1D PREFETCH  REQUESTED:          0  ISSUED:          0  USEFUL:          0  USELESS:          0
cpu0_L1D AVERAGE MISS LATENCY: 82.2919 cycles
cpu0_L2C TOTAL     ACCESS:     419943  HIT:     238999  MISS:     180944
cpu0_L2C LOAD      ACCESS:     236681  HIT:     140952  MISS:      95729
cpu0_L2C RFO       ACCESS:      90683  HIT:       5588  MISS:      85095
cpu0_L2C PREFETCH  ACCESS:          0  HIT:          0  MISS:          0
cpu0_L2C WRITEBACK ACCESS:      92444  HIT:      92338  MISS:        106
cpu0_L2C TRANSLATION ACCESS:        135  HIT:        121  MISS:         14
cpu0_L2C PREFETCH  REQUESTED:          0  ISSUED:          0  USEFUL:          0  USELESS:          0
cpu0_L2C AVERAGE MISS LATENCY: 127.112 cycles
LLC TOTAL     ACCESS:     270615  HIT:     194008  MISS:      76607
LLC LOAD      ACCESS:      95729  HIT:      61880  MISS:      33849
LLC RFO       ACCESS:      85095  HIT:      42549  MISS:      42546
LLC PREFETCH  ACCESS:          0  HIT:          0  MISS:          0
LLC WRITEBACK ACCESS:      89777  HIT:      89570  MISS:        207
LLC TRANSLATION ACCESS:         14  HIT:          9  MISS:          5
LLC PREFETCH  REQUESTED:          0  ISSUED:          0  USEFUL:          0  USELESS:          0
LLC AVERAGE MISS LATENCY: 250.66 cycles

DRAM Statistics
 CHANNEL 0
 RQ ROW_BUFFER_HIT:      20864  ROW_BUFFER_MISS:      55469
 DBUS AVG_CONGESTED_CYCLE:    3.92742
 WQ ROW_BUFFER_HIT:       5802  ROW_BUFFER_MISS:      35189  FULL:          0


CPU 0 Branch Prediction Accuracy: 94.363% MPKI: 4.48464 Average ROB Occupancy at Mispredict: 160.445
Branch type MPKI
BRANCH_DIRECT_JUMP: 0.00024
BRANCH_INDIRECT: 0.00166
BRANCH_CONDITIONAL: 4.48115
BRANCH_DIRECT_CALL: 6e-05
BRANCH_INDIRECT_CALL: 0.00061
BRANCH_RETURN: 0.00092

