
*** ChampSim Multicore Out-of-Order Simulator ***

Warmup Instructions: 10000000
Simulation Instructions: 100000000
Number of CPUs: 1
Off-chip DRAM Size: 4 GiB Channels: 1 Width: 64-bit Data Rate: 3200 MT/s

VirtualMemory physical capacity: 8588881920 num_ppages: 2096895
VirtualMemory page size: 4096 log2_page_size: 12

CPU 0 runs /datasets/cs240c-wi22-a00-public/data/Assignment2/xalancbmk_748B.trace.xz
CPU 0 Bimodal branch predictor
Basic BTB sets: 1024 ways: 8 indirect buffer size: 4096 RAS size: 64
Heartbeat CPU 0 instructions: 10000002 cycles: 2655103 heartbeat IPC: 3.76633 cumulative IPC: 3.76633 (Simulation time: 0 hr 0 min 34 sec) 

Warmup complete CPU 0 instructions: 10000002 cycles: 2655103 (Simulation time: 0 hr 0 min 34 sec) 

Heartbeat CPU 0 instructions: 20000001 cycles: 11834932 heartbeat IPC: 1.08934 cumulative IPC: 1.08934 (Simulation time: 0 hr 1 min 15 sec) 
Heartbeat CPU 0 instructions: 30000002 cycles: 21020025 heartbeat IPC: 1.08872 cumulative IPC: 1.08903 (Simulation time: 0 hr 1 min 58 sec) 
Heartbeat CPU 0 instructions: 40000002 cycles: 30486779 heartbeat IPC: 1.05633 cumulative IPC: 1.07791 (Simulation time: 0 hr 2 min 42 sec) 
Heartbeat CPU 0 instructions: 50000001 cycles: 39081142 heartbeat IPC: 1.16355 cumulative IPC: 1.09812 (Simulation time: 0 hr 3 min 24 sec) 
Heartbeat CPU 0 instructions: 60000003 cycles: 46207806 heartbeat IPC: 1.40318 cumulative IPC: 1.14803 (Simulation time: 0 hr 4 min 10 sec) 
Heartbeat CPU 0 instructions: 70000000 cycles: 52761737 heartbeat IPC: 1.5258 cumulative IPC: 1.19745 (Simulation time: 0 hr 4 min 56 sec) 
Heartbeat CPU 0 instructions: 80000003 cycles: 64179525 heartbeat IPC: 0.875827 cumulative IPC: 1.13776 (Simulation time: 0 hr 5 min 42 sec) 
Heartbeat CPU 0 instructions: 90000003 cycles: 73008993 heartbeat IPC: 1.13257 cumulative IPC: 1.13711 (Simulation time: 0 hr 6 min 25 sec) 
Heartbeat CPU 0 instructions: 100000003 cycles: 81046479 heartbeat IPC: 1.24417 cumulative IPC: 1.14809 (Simulation time: 0 hr 7 min 10 sec) 
Heartbeat CPU 0 instructions: 110000001 cycles: 88311791 heartbeat IPC: 1.3764 cumulative IPC: 1.16745 (Simulation time: 0 hr 7 min 55 sec) 
Finished CPU 0 instructions: 100000004 cycles: 85656689 cumulative IPC: 1.16745 (Simulation time: 0 hr 7 min 55 sec) 

ChampSim completed all CPUs

Region of Interest Statistics

CPU 0 cumulative IPC: 1.16745 instructions: 100000004 cycles: 85656689
cpu0_DTLB TOTAL     ACCESS:   20938475  HIT:   19923226  MISS:    1015249
cpu0_DTLB LOAD      ACCESS:   15325801  HIT:   14390983  MISS:     934818
cpu0_DTLB RFO       ACCESS:    5612674  HIT:    5532243  MISS:      80431
cpu0_DTLB PREFETCH  ACCESS:          0  HIT:          0  MISS:          0
cpu0_DTLB WRITEBACK ACCESS:          0  HIT:          0  MISS:          0
cpu0_DTLB TRANSLATION ACCESS:          0  HIT:          0  MISS:          0
cpu0_DTLB PREFETCH  REQUESTED:          0  ISSUED:          0  USEFUL:          0  USELESS:          0
cpu0_DTLB AVERAGE MISS LATENCY: 12.7098 cycles
cpu0_ITLB TOTAL     ACCESS:    8534326  HIT:    8419291  MISS:     115035
cpu0_ITLB LOAD      ACCESS:    8534326  HIT:    8419291  MISS:     115035
cpu0_ITLB RFO       ACCESS:          0  HIT:          0  MISS:          0
cpu0_ITLB PREFETCH  ACCESS:          0  HIT:          0  MISS:          0
cpu0_ITLB WRITEBACK ACCESS:          0  HIT:          0  MISS:          0
cpu0_ITLB TRANSLATION ACCESS:          0  HIT:          0  MISS:          0
cpu0_ITLB PREFETCH  REQUESTED:          0  ISSUED:          0  USEFUL:          0  USELESS:          0
cpu0_ITLB AVERAGE MISS LATENCY: 9.08136 cycles
cpu0_L1I TOTAL     ACCESS:    5572405  HIT:    5474388  MISS:      98017
cpu0_L1I LOAD      ACCESS:    5572405  HIT:    5474388  MISS:      98017
cpu0_L1I RFO       ACCESS:          0  HIT:          0  MISS:          0
cpu0_L1I PREFETCH  ACCESS:          0  HIT:          0  MISS:          0
cpu0_L1I WRITEBACK ACCESS:          0  HIT:          0  MISS:          0
cpu0_L1I TRANSLATION ACCESS:          0  HIT:          0  MISS:          0
cpu0_L1I PREFETCH  REQUESTED:          0  ISSUED:          0  USEFUL:          0  USELESS:          0
cpu0_L1I AVERAGE MISS LATENCY: 19.1295 cycles
cpu0_STLB TOTAL     ACCESS:    1130284  HIT:    1056273  MISS:      74011
cpu0_STLB LOAD      ACCESS:    1049853  HIT:    1003762  MISS:      46091
cpu0_STLB RFO       ACCESS:      80431  HIT:      52511  MISS:      27920
cpu0_STLB PREFETCH  ACCESS:          0  HIT:          0  MISS:          0
cpu0_STLB WRITEBACK ACCESS:          0  HIT:          0  MISS:          0
cpu0_STLB TRANSLATION ACCESS:          0  HIT:          0  MISS:          0
cpu0_STLB PREFETCH  REQUESTED:          0  ISSUED:          0  USEFUL:          0  USELESS:          0
cpu0_STLB AVERAGE MISS LATENCY: 50.8597 cycles
cpu0_L1D TOTAL     ACCESS:   22855750  HIT:   21381175  MISS:    1474575
cpu0_L1D LOAD      ACCESS:   13614731  HIT:   12401345  MISS:    1213386
cpu0_L1D RFO       ACCESS:    9174125  HIT:    8927913  MISS:     246212
cpu0_L1D PREFETCH  ACCESS:          0  HIT:          0  MISS:          0
cpu0_L1D WRITEBACK ACCESS:          0  HIT:          0  MISS:          0
cpu0_L1D TRANSLATION ACCESS:      66894  HIT:      51917  MISS:      14977
cpu0_L1D PREFETCH  REQUESTED:          0  ISSUED:          0  USEFUL:          0  USELESS:          0
cpu0_L1D AVERAGE MISS LATENCY: 50.2079 cycles
cpu0_L2C TOTAL     ACCESS:    1931750  HIT:    1587957  MISS:     343793
cpu0_L2C LOAD      ACCESS:    1311363  HIT:    1191265  MISS:     120098
cpu0_L2C RFO       ACCESS:     246200  HIT:      23092  MISS:     223108
cpu0_L2C PREFETCH  ACCESS:          0  HIT:          0  MISS:          0
cpu0_L2C WRITEBACK ACCESS:     359210  HIT:     358723  MISS:        487
cpu0_L2C TRANSLATION ACCESS:      14977  HIT:      14877  MISS:        100
cpu0_L2C PREFETCH  REQUESTED:          0  ISSUED:          0  USEFUL:          0  USELESS:          0
cpu0_L2C AVERAGE MISS LATENCY: 169.905 cycles
LLC TOTAL     ACCESS:     632534  HIT:     360664  MISS:     271870
LLC LOAD      ACCESS:     120098  HIT:      52283  MISS:      67815
LLC RFO       ACCESS:     223108  HIT:      19571  MISS:     203537
LLC PREFETCH  ACCESS:          0  HIT:          0  MISS:          0
LLC WRITEBACK ACCESS:     289228  HIT:     288766  MISS:        462
LLC TRANSLATION ACCESS:        100  HIT:         44  MISS:         56
LLC PREFETCH  REQUESTED:          0  ISSUED:          0  USEFUL:          0  USELESS:          0
LLC AVERAGE MISS LATENCY: 188.335 cycles

DRAM Statistics
 CHANNEL 0
 RQ ROW_BUFFER_HIT:      99970  ROW_BUFFER_MISS:     171425
 DBUS AVG_CONGESTED_CYCLE:    3.94615
 WQ ROW_BUFFER_HIT:      24052  ROW_BUFFER_MISS:     209861  FULL:          0


CPU 0 Branch Prediction Accuracy: 96.4988% MPKI: 10.3974 Average ROB Occupancy at Mispredict: 40.323
Branch type MPKI
BRANCH_DIRECT_JUMP: 0.0002
BRANCH_INDIRECT: 0.35495
BRANCH_CONDITIONAL: 7.96079
BRANCH_DIRECT_CALL: 9e-05
BRANCH_INDIRECT_CALL: 0.45393
BRANCH_RETURN: 1.62746

