
*** ChampSim Multicore Out-of-Order Simulator ***

Warmup Instructions: 10000000
Simulation Instructions: 100000000
Number of CPUs: 1
Off-chip DRAM Size: 4 GiB Channels: 1 Width: 64-bit Data Rate: 3200 MT/s

VirtualMemory physical capacity: 8588881920 num_ppages: 2096895
VirtualMemory page size: 4096 log2_page_size: 12

CPU 0 runs /datasets/cs240c-wi22-a00-public/data/Assignment2/bwaves_1609B.trace.xz
CPU 0 Bimodal branch predictor
Basic BTB sets: 1024 ways: 8 indirect buffer size: 4096 RAS size: 64
Initialize Hawkeye state
Heartbeat CPU 0 instructions: 10000000 cycles: 4727853 heartbeat IPC: 2.11512 cumulative IPC: 2.11512 (Simulation time: 0 hr 1 min 21 sec) 

Warmup complete CPU 0 instructions: 10000001 cycles: 4727854 (Simulation time: 0 hr 1 min 21 sec) 

Heartbeat CPU 0 instructions: 20000002 cycles: 38919949 heartbeat IPC: 0.292465 cumulative IPC: 0.292465 (Simulation time: 0 hr 4 min 19 sec) 
Heartbeat CPU 0 instructions: 30000000 cycles: 73117308 heartbeat IPC: 0.29242 cumulative IPC: 0.292443 (Simulation time: 0 hr 7 min 11 sec) 
Heartbeat CPU 0 instructions: 40000002 cycles: 107317130 heartbeat IPC: 0.292399 cumulative IPC: 0.292428 (Simulation time: 0 hr 9 min 57 sec) 
Heartbeat CPU 0 instructions: 50000003 cycles: 141520458 heartbeat IPC: 0.292369 cumulative IPC: 0.292413 (Simulation time: 0 hr 12 min 47 sec) 
Heartbeat CPU 0 instructions: 60000001 cycles: 175747923 heartbeat IPC: 0.292163 cumulative IPC: 0.292363 (Simulation time: 0 hr 15 min 28 sec) 
Heartbeat CPU 0 instructions: 70000000 cycles: 210001501 heartbeat IPC: 0.29194 cumulative IPC: 0.292293 (Simulation time: 0 hr 18 min 4 sec) 
Heartbeat CPU 0 instructions: 80000004 cycles: 244227554 heartbeat IPC: 0.292175 cumulative IPC: 0.292276 (Simulation time: 0 hr 20 min 46 sec) 
Heartbeat CPU 0 instructions: 90000000 cycles: 278501922 heartbeat IPC: 0.291763 cumulative IPC: 0.292212 (Simulation time: 0 hr 23 min 28 sec) 
Heartbeat CPU 0 instructions: 100000000 cycles: 312700395 heartbeat IPC: 0.292411 cumulative IPC: 0.292234 (Simulation time: 0 hr 26 min 13 sec) 
Heartbeat CPU 0 instructions: 110000003 cycles: 346925460 heartbeat IPC: 0.292184 cumulative IPC: 0.292229 (Simulation time: 0 hr 28 min 55 sec) 
Finished CPU 0 instructions: 100000002 cycles: 342197606 cumulative IPC: 0.292229 (Simulation time: 0 hr 28 min 55 sec) 

ChampSim completed all CPUs

Region of Interest Statistics

CPU 0 cumulative IPC: 0.292229 instructions: 100000002 cycles: 342197606
cpu0_DTLB TOTAL     ACCESS:   37921158  HIT:   37840071  MISS:      81087
cpu0_DTLB LOAD      ACCESS:   36199680  HIT:   36119517  MISS:      80163
cpu0_DTLB RFO       ACCESS:    1721478  HIT:    1720554  MISS:        924
cpu0_DTLB PREFETCH  ACCESS:          0  HIT:          0  MISS:          0
cpu0_DTLB WRITEBACK ACCESS:          0  HIT:          0  MISS:          0
cpu0_DTLB TRANSLATION ACCESS:          0  HIT:          0  MISS:          0
cpu0_DTLB PREFETCH  REQUESTED:          0  ISSUED:          0  USEFUL:          0  USELESS:          0
cpu0_DTLB AVERAGE MISS LATENCY: 119.95 cycles
cpu0_ITLB TOTAL     ACCESS:    9626481  HIT:    9626481  MISS:          0
cpu0_ITLB LOAD      ACCESS:    9626481  HIT:    9626481  MISS:          0
cpu0_ITLB RFO       ACCESS:          0  HIT:          0  MISS:          0
cpu0_ITLB PREFETCH  ACCESS:          0  HIT:          0  MISS:          0
cpu0_ITLB WRITEBACK ACCESS:          0  HIT:          0  MISS:          0
cpu0_ITLB TRANSLATION ACCESS:          0  HIT:          0  MISS:          0
cpu0_ITLB PREFETCH  REQUESTED:          0  ISSUED:          0  USEFUL:          0  USELESS:          0
cpu0_ITLB AVERAGE MISS LATENCY: -nan cycles
cpu0_STLB TOTAL     ACCESS:      81087  HIT:      46544  MISS:      34543
cpu0_STLB LOAD      ACCESS:      80163  HIT:      46532  MISS:      33631
cpu0_STLB RFO       ACCESS:        924  HIT:         12  MISS:        912
cpu0_STLB PREFETCH  ACCESS:          0  HIT:          0  MISS:          0
cpu0_STLB WRITEBACK ACCESS:          0  HIT:          0  MISS:          0
cpu0_STLB TRANSLATION ACCESS:          0  HIT:          0  MISS:          0
cpu0_STLB PREFETCH  REQUESTED:          0  ISSUED:          0  USEFUL:          0  USELESS:          0
cpu0_STLB AVERAGE MISS LATENCY: 259.826 cycles
cpu0_L1D TOTAL     ACCESS:   36059273  HIT:   33661729  MISS:    2397544
cpu0_L1D LOAD      ACCESS:   33289818  HIT:   30953150  MISS:    2336668
cpu0_L1D RFO       ACCESS:    2734912  HIT:    2676534  MISS:      58378
cpu0_L1D PREFETCH  ACCESS:          0  HIT:          0  MISS:          0
cpu0_L1D WRITEBACK ACCESS:          0  HIT:          0  MISS:          0
cpu0_L1D TRANSLATION ACCESS:      34543  HIT:      32045  MISS:       2498
cpu0_L1D PREFETCH  REQUESTED:          0  ISSUED:          0  USEFUL:          0  USELESS:          0
cpu0_L1D AVERAGE MISS LATENCY: 1172.73 cycles
cpu0_L2C TOTAL     ACCESS:    2455928  HIT:     179136  MISS:    2276792
cpu0_L2C LOAD      ACCESS:    2336668  HIT:     118268  MISS:    2218400
cpu0_L2C RFO       ACCESS:      58378  HIT:          0  MISS:      58378
cpu0_L2C PREFETCH  ACCESS:          0  HIT:          0  MISS:          0
cpu0_L2C WRITEBACK ACCESS:      58384  HIT:      58384  MISS:          0
cpu0_L2C TRANSLATION ACCESS:       2498  HIT:       2484  MISS:         14
cpu0_L2C PREFETCH  REQUESTED:          0  ISSUED:          0  USEFUL:          0  USELESS:          0
cpu0_L2C AVERAGE MISS LATENCY: 1222.8 cycles
LLC TOTAL     ACCESS:    2335000  HIT:     114895  MISS:    2220105
LLC LOAD      ACCESS:    2218400  HIT:     114314  MISS:    2104086
LLC RFO       ACCESS:      58378  HIT:          0  MISS:      58378
LLC PREFETCH  ACCESS:          0  HIT:          0  MISS:          0
LLC WRITEBACK ACCESS:      58208  HIT:        580  MISS:      57628
LLC TRANSLATION ACCESS:         14  HIT:          1  MISS:         13
LLC PREFETCH  REQUESTED:          0  ISSUED:          0  USEFUL:          0  USELESS:          0
LLC AVERAGE MISS LATENCY: 1232.49 cycles
OPTgen accesses: 39136
OPTgen hits: 2583
OPTgen hit rate: 6.60006



DRAM Statistics
 CHANNEL 0
 RQ ROW_BUFFER_HIT:        208  ROW_BUFFER_MISS:    2162269
 DBUS AVG_CONGESTED_CYCLE:    3.99829
 WQ ROW_BUFFER_HIT:      12439  ROW_BUFFER_MISS:      46372  FULL:          0


CPU 0 Branch Prediction Accuracy: 62.439% MPKI: 11.2378 Average ROB Occupancy at Mispredict: 168.248
Branch type MPKI
BRANCH_DIRECT_JUMP: 0
BRANCH_INDIRECT: 0
BRANCH_CONDITIONAL: 11.2378
BRANCH_DIRECT_CALL: 0
BRANCH_INDIRECT_CALL: 0
BRANCH_RETURN: 0

