
*** ChampSim Multicore Out-of-Order Simulator ***

Warmup Instructions: 10000000
Simulation Instructions: 100000000
Number of CPUs: 1
Off-chip DRAM Size: 4 GiB Channels: 1 Width: 64-bit Data Rate: 3200 MT/s

VirtualMemory physical capacity: 8588881920 num_ppages: 2096895
VirtualMemory page size: 4096 log2_page_size: 12

CPU 0 runs /datasets/cs240c-wi22-a00-public/data/Assignment2/bzip2_281B.trace.xz
CPU 0 Bimodal branch predictor
Basic BTB sets: 1024 ways: 8 indirect buffer size: 4096 RAS size: 64
Initialize Hawkeye state
Heartbeat CPU 0 instructions: 10000004 cycles: 3227384 heartbeat IPC: 3.09849 cumulative IPC: 3.09849 (Simulation time: 0 hr 0 min 43 sec) 

Warmup complete CPU 0 instructions: 10000004 cycles: 3227384 (Simulation time: 0 hr 0 min 43 sec) 

Heartbeat CPU 0 instructions: 20000000 cycles: 13911055 heartbeat IPC: 0.936007 cumulative IPC: 0.936007 (Simulation time: 0 hr 1 min 37 sec) 
Heartbeat CPU 0 instructions: 30000001 cycles: 26438942 heartbeat IPC: 0.798219 cumulative IPC: 0.86164 (Simulation time: 0 hr 2 min 52 sec) 
Heartbeat CPU 0 instructions: 40000002 cycles: 31072506 heartbeat IPC: 2.15817 cumulative IPC: 1.07739 (Simulation time: 0 hr 3 min 26 sec) 
Heartbeat CPU 0 instructions: 50000002 cycles: 36299313 heartbeat IPC: 1.91321 cumulative IPC: 1.20948 (Simulation time: 0 hr 4 min 4 sec) 
Heartbeat CPU 0 instructions: 60000000 cycles: 41563438 heartbeat IPC: 1.89965 cumulative IPC: 1.30426 (Simulation time: 0 hr 4 min 48 sec) 
Heartbeat CPU 0 instructions: 70000004 cycles: 49085766 heartbeat IPC: 1.32938 cumulative IPC: 1.30838 (Simulation time: 0 hr 5 min 49 sec) 
Heartbeat CPU 0 instructions: 80000003 cycles: 56699321 heartbeat IPC: 1.31345 cumulative IPC: 1.3091 (Simulation time: 0 hr 6 min 39 sec) 
Heartbeat CPU 0 instructions: 90000003 cycles: 63031873 heartbeat IPC: 1.57914 cumulative IPC: 1.33769 (Simulation time: 0 hr 7 min 15 sec) 
Heartbeat CPU 0 instructions: 100000001 cycles: 69599096 heartbeat IPC: 1.52271 cumulative IPC: 1.356 (Simulation time: 0 hr 7 min 55 sec) 
Heartbeat CPU 0 instructions: 110000000 cycles: 76321064 heartbeat IPC: 1.48766 cumulative IPC: 1.36811 (Simulation time: 0 hr 8 min 35 sec) 
Finished CPU 0 instructions: 100000000 cycles: 73093682 cumulative IPC: 1.36811 (Simulation time: 0 hr 8 min 35 sec) 

ChampSim completed all CPUs

Region of Interest Statistics

CPU 0 cumulative IPC: 1.36811 instructions: 100000000 cycles: 73093682
cpu0_DTLB TOTAL     ACCESS:   19638778  HIT:   18880135  MISS:     758643
cpu0_DTLB LOAD      ACCESS:   13785936  HIT:   13140264  MISS:     645672
cpu0_DTLB RFO       ACCESS:    5852842  HIT:    5739871  MISS:     112971
cpu0_DTLB PREFETCH  ACCESS:          0  HIT:          0  MISS:          0
cpu0_DTLB WRITEBACK ACCESS:          0  HIT:          0  MISS:          0
cpu0_DTLB TRANSLATION ACCESS:          0  HIT:          0  MISS:          0
cpu0_DTLB PREFETCH  REQUESTED:          0  ISSUED:          0  USEFUL:          0  USELESS:          0
cpu0_DTLB AVERAGE MISS LATENCY: 9.33393 cycles
cpu0_ITLB TOTAL     ACCESS:    6405308  HIT:    6405294  MISS:         14
cpu0_ITLB LOAD      ACCESS:    6405308  HIT:    6405294  MISS:         14
cpu0_ITLB RFO       ACCESS:          0  HIT:          0  MISS:          0
cpu0_ITLB PREFETCH  ACCESS:          0  HIT:          0  MISS:          0
cpu0_ITLB WRITEBACK ACCESS:          0  HIT:          0  MISS:          0
cpu0_ITLB TRANSLATION ACCESS:          0  HIT:          0  MISS:          0
cpu0_ITLB PREFETCH  REQUESTED:          0  ISSUED:          0  USEFUL:          0  USELESS:          0
cpu0_ITLB AVERAGE MISS LATENCY: 222.429 cycles
cpu0_L1I TOTAL     ACCESS:    2685727  HIT:    2685373  MISS:        354
cpu0_L1I LOAD      ACCESS:    2685727  HIT:    2685373  MISS:        354
cpu0_L1I RFO       ACCESS:          0  HIT:          0  MISS:          0
cpu0_L1I PREFETCH  ACCESS:          0  HIT:          0  MISS:          0
cpu0_L1I WRITEBACK ACCESS:          0  HIT:          0  MISS:          0
cpu0_L1I TRANSLATION ACCESS:          0  HIT:          0  MISS:          0
cpu0_L1I PREFETCH  REQUESTED:          0  ISSUED:          0  USEFUL:          0  USELESS:          0
cpu0_L1I AVERAGE MISS LATENCY: 155.732 cycles
cpu0_STLB TOTAL     ACCESS:     758657  HIT:     757575  MISS:       1082
cpu0_STLB LOAD      ACCESS:     645686  HIT:     644779  MISS:        907
cpu0_STLB RFO       ACCESS:     112971  HIT:     112796  MISS:        175
cpu0_STLB PREFETCH  ACCESS:          0  HIT:          0  MISS:          0
cpu0_STLB WRITEBACK ACCESS:          0  HIT:          0  MISS:          0
cpu0_STLB TRANSLATION ACCESS:          0  HIT:          0  MISS:          0
cpu0_STLB PREFETCH  REQUESTED:          0  ISSUED:          0  USEFUL:          0  USELESS:          0
cpu0_STLB AVERAGE MISS LATENCY: 205.722 cycles
cpu0_L1D TOTAL     ACCESS:   23576433  HIT:   21977328  MISS:    1599105
cpu0_L1D LOAD      ACCESS:   13801462  HIT:   12408483  MISS:    1392979
cpu0_L1D RFO       ACCESS:    9773904  HIT:    9568283  MISS:     205621
cpu0_L1D PREFETCH  ACCESS:          0  HIT:          0  MISS:          0
cpu0_L1D WRITEBACK ACCESS:          0  HIT:          0  MISS:          0
cpu0_L1D TRANSLATION ACCESS:       1067  HIT:        562  MISS:        505
cpu0_L1D PREFETCH  REQUESTED:          0  ISSUED:          0  USEFUL:          0  USELESS:          0
cpu0_L1D AVERAGE MISS LATENCY: 92.3094 cycles
cpu0_L2C TOTAL     ACCESS:    1813753  HIT:     911814  MISS:     901939
cpu0_L2C LOAD      ACCESS:    1393329  HIT:     649137  MISS:     744192
cpu0_L2C RFO       ACCESS:     205613  HIT:      48092  MISS:     157521
cpu0_L2C PREFETCH  ACCESS:          0  HIT:          0  MISS:          0
cpu0_L2C WRITEBACK ACCESS:     214306  HIT:     214110  MISS:        196
cpu0_L2C TRANSLATION ACCESS:        505  HIT:        475  MISS:         30
cpu0_L2C PREFETCH  REQUESTED:          0  ISSUED:          0  USEFUL:          0  USELESS:          0
cpu0_L2C AVERAGE MISS LATENCY: 144.075 cycles
LLC TOTAL     ACCESS:    1060206  HIT:     828100  MISS:     232106
LLC LOAD      ACCESS:     744191  HIT:     609297  MISS:     134894
LLC RFO       ACCESS:     157512  HIT:      83524  MISS:      73988
LLC PREFETCH  ACCESS:          0  HIT:          0  MISS:          0
LLC WRITEBACK ACCESS:     158473  HIT:     135264  MISS:      23209
LLC TRANSLATION ACCESS:         30  HIT:         15  MISS:         15
LLC PREFETCH  REQUESTED:          0  ISSUED:          0  USEFUL:          0  USELESS:          0
LLC AVERAGE MISS LATENCY: 478.265 cycles
OPTgen accesses: 14748
OPTgen hits: 11847
OPTgen hit rate: 80.3295



DRAM Statistics
 CHANNEL 0
 RQ ROW_BUFFER_HIT:      54925  ROW_BUFFER_MISS:     153602
 DBUS AVG_CONGESTED_CYCLE:    3.98358
 WQ ROW_BUFFER_HIT:       6572  ROW_BUFFER_MISS:      94378  FULL:        324


CPU 0 Branch Prediction Accuracy: 91.2056% MPKI: 12.1715 Average ROB Occupancy at Mispredict: 72.0616
Branch type MPKI
BRANCH_DIRECT_JUMP: 0.00059
BRANCH_INDIRECT: 0
BRANCH_CONDITIONAL: 12.1706
BRANCH_DIRECT_CALL: 0.00014
BRANCH_INDIRECT_CALL: 0
BRANCH_RETURN: 0.00019

