
*** ChampSim Multicore Out-of-Order Simulator ***

Warmup Instructions: 10000000
Simulation Instructions: 100000000
Number of CPUs: 1
Off-chip DRAM Size: 4 GiB Channels: 1 Width: 64-bit Data Rate: 3200 MT/s

VirtualMemory physical capacity: 8588881920 num_ppages: 2096895
VirtualMemory page size: 4096 log2_page_size: 12

CPU 0 runs /datasets/cs240c-wi22-a00-public/data/Assignment2/calculix_3812B.trace.xz
CPU 0 Bimodal branch predictor
Basic BTB sets: 1024 ways: 8 indirect buffer size: 4096 RAS size: 64
Initialize Hawkeye state
Heartbeat CPU 0 instructions: 10000000 cycles: 2819851 heartbeat IPC: 3.54629 cumulative IPC: 3.54629 (Simulation time: 0 hr 0 min 30 sec) 

Warmup complete CPU 0 instructions: 10000004 cycles: 2819852 (Simulation time: 0 hr 0 min 30 sec) 

Heartbeat CPU 0 instructions: 20000004 cycles: 6556103 heartbeat IPC: 2.67648 cumulative IPC: 2.67648 (Simulation time: 0 hr 0 min 59 sec) 
Heartbeat CPU 0 instructions: 30000001 cycles: 10363510 heartbeat IPC: 2.62646 cumulative IPC: 2.65123 (Simulation time: 0 hr 1 min 25 sec) 
Heartbeat CPU 0 instructions: 40000000 cycles: 14179115 heartbeat IPC: 2.62082 cumulative IPC: 2.64102 (Simulation time: 0 hr 2 min 10 sec) 
Heartbeat CPU 0 instructions: 50000001 cycles: 18403013 heartbeat IPC: 2.36748 cumulative IPC: 2.56687 (Simulation time: 0 hr 2 min 49 sec) 
Heartbeat CPU 0 instructions: 60000000 cycles: 22278701 heartbeat IPC: 2.58019 cumulative IPC: 2.56952 (Simulation time: 0 hr 3 min 18 sec) 
Heartbeat CPU 0 instructions: 70000000 cycles: 26129947 heartbeat IPC: 2.59656 cumulative IPC: 2.57399 (Simulation time: 0 hr 3 min 47 sec) 
Heartbeat CPU 0 instructions: 80000001 cycles: 29847890 heartbeat IPC: 2.68966 cumulative IPC: 2.5899 (Simulation time: 0 hr 4 min 27 sec) 
Heartbeat CPU 0 instructions: 90000004 cycles: 33902431 heartbeat IPC: 2.46637 cumulative IPC: 2.57379 (Simulation time: 0 hr 5 min 5 sec) 
Heartbeat CPU 0 instructions: 100000001 cycles: 37820256 heartbeat IPC: 2.55244 cumulative IPC: 2.5714 (Simulation time: 0 hr 5 min 33 sec) 
Heartbeat CPU 0 instructions: 110000002 cycles: 41455421 heartbeat IPC: 2.75091 cumulative IPC: 2.58829 (Simulation time: 0 hr 5 min 58 sec) 
Finished CPU 0 instructions: 100000003 cycles: 38635570 cumulative IPC: 2.58829 (Simulation time: 0 hr 5 min 58 sec) 

ChampSim completed all CPUs

Region of Interest Statistics

CPU 0 cumulative IPC: 2.58829 instructions: 100000003 cycles: 38635570
cpu0_DTLB TOTAL     ACCESS:   14464130  HIT:   14436845  MISS:      27285
cpu0_DTLB LOAD      ACCESS:   12804732  HIT:   12778558  MISS:      26174
cpu0_DTLB RFO       ACCESS:    1659398  HIT:    1658287  MISS:       1111
cpu0_DTLB PREFETCH  ACCESS:          0  HIT:          0  MISS:          0
cpu0_DTLB WRITEBACK ACCESS:          0  HIT:          0  MISS:          0
cpu0_DTLB TRANSLATION ACCESS:          0  HIT:          0  MISS:          0
cpu0_DTLB PREFETCH  REQUESTED:          0  ISSUED:          0  USEFUL:          0  USELESS:          0
cpu0_DTLB AVERAGE MISS LATENCY: 14.9806 cycles
cpu0_ITLB TOTAL     ACCESS:    5758672  HIT:    5758644  MISS:         28
cpu0_ITLB LOAD      ACCESS:    5758672  HIT:    5758644  MISS:         28
cpu0_ITLB RFO       ACCESS:          0  HIT:          0  MISS:          0
cpu0_ITLB PREFETCH  ACCESS:          0  HIT:          0  MISS:          0
cpu0_ITLB WRITEBACK ACCESS:          0  HIT:          0  MISS:          0
cpu0_ITLB TRANSLATION ACCESS:          0  HIT:          0  MISS:          0
cpu0_ITLB PREFETCH  REQUESTED:          0  ISSUED:          0  USEFUL:          0  USELESS:          0
cpu0_ITLB AVERAGE MISS LATENCY: 9 cycles
cpu0_L1I TOTAL     ACCESS:     869565  HIT:     868813  MISS:        752
cpu0_L1I LOAD      ACCESS:     869565  HIT:     868813  MISS:        752
cpu0_L1I RFO       ACCESS:          0  HIT:          0  MISS:          0
cpu0_L1I PREFETCH  ACCESS:          0  HIT:          0  MISS:          0
cpu0_L1I WRITEBACK ACCESS:          0  HIT:          0  MISS:          0
cpu0_L1I TRANSLATION ACCESS:          0  HIT:          0  MISS:          0
cpu0_L1I PREFETCH  REQUESTED:          0  ISSUED:          0  USEFUL:          0  USELESS:          0
cpu0_L1I AVERAGE MISS LATENCY: 66.3883 cycles
cpu0_STLB TOTAL     ACCESS:      27313  HIT:      26539  MISS:        774
cpu0_STLB LOAD      ACCESS:      26202  HIT:      25862  MISS:        340
cpu0_STLB RFO       ACCESS:       1111  HIT:        677  MISS:        434
cpu0_STLB PREFETCH  ACCESS:          0  HIT:          0  MISS:          0
cpu0_STLB WRITEBACK ACCESS:          0  HIT:          0  MISS:          0
cpu0_STLB TRANSLATION ACCESS:          0  HIT:          0  MISS:          0
cpu0_STLB PREFETCH  REQUESTED:          0  ISSUED:          0  USEFUL:          0  USELESS:          0
cpu0_STLB AVERAGE MISS LATENCY: 210.756 cycles
cpu0_L1D TOTAL     ACCESS:   16700394  HIT:   15373101  MISS:    1327293
cpu0_L1D LOAD      ACCESS:   11982319  HIT:   10707229  MISS:    1275090
cpu0_L1D RFO       ACCESS:    4717304  HIT:    4665148  MISS:      52156
cpu0_L1D PREFETCH  ACCESS:          0  HIT:          0  MISS:          0
cpu0_L1D WRITEBACK ACCESS:          0  HIT:          0  MISS:          0
cpu0_L1D TRANSLATION ACCESS:        771  HIT:        724  MISS:         47
cpu0_L1D PREFETCH  REQUESTED:          0  ISSUED:          0  USEFUL:          0  USELESS:          0
cpu0_L1D AVERAGE MISS LATENCY: 34.5113 cycles
cpu0_L2C TOTAL     ACCESS:    1837948  HIT:    1545990  MISS:     291958
cpu0_L2C LOAD      ACCESS:    1275831  HIT:    1023139  MISS:     252692
cpu0_L2C RFO       ACCESS:      52156  HIT:      13804  MISS:      38352
cpu0_L2C PREFETCH  ACCESS:          0  HIT:          0  MISS:          0
cpu0_L2C WRITEBACK ACCESS:     509914  HIT:     509016  MISS:        898
cpu0_L2C TRANSLATION ACCESS:         47  HIT:         31  MISS:         16
cpu0_L2C PREFETCH  REQUESTED:          0  ISSUED:          0  USEFUL:          0  USELESS:          0
cpu0_L2C AVERAGE MISS LATENCY: 106.324 cycles
LLC TOTAL     ACCESS:     430989  HIT:     338069  MISS:      92920
LLC LOAD      ACCESS:     252687  HIT:     199797  MISS:      52890
LLC RFO       ACCESS:      38344  HIT:       7363  MISS:      30981
LLC PREFETCH  ACCESS:          0  HIT:          0  MISS:          0
LLC WRITEBACK ACCESS:     139942  HIT:     130897  MISS:       9045
LLC TRANSLATION ACCESS:         16  HIT:         12  MISS:          4
LLC PREFETCH  REQUESTED:          0  ISSUED:          0  USEFUL:          0  USELESS:          0
LLC AVERAGE MISS LATENCY: 267.682 cycles
OPTgen accesses: 5286
OPTgen hits: 4124
OPTgen hit rate: 78.0174



DRAM Statistics
 CHANNEL 0
 RQ ROW_BUFFER_HIT:      40843  ROW_BUFFER_MISS:      42965
 DBUS AVG_CONGESTED_CYCLE:    3.95976
 WQ ROW_BUFFER_HIT:       5316  ROW_BUFFER_MISS:      31282  FULL:      55911


CPU 0 Branch Prediction Accuracy: 96.6151% MPKI: 1.9742 Average ROB Occupancy at Mispredict: 164.832
Branch type MPKI
BRANCH_DIRECT_JUMP: 0.00017
BRANCH_INDIRECT: 0.00062
BRANCH_CONDITIONAL: 1.97308
BRANCH_DIRECT_CALL: 0.00017
BRANCH_INDIRECT_CALL: 0
BRANCH_RETURN: 0.00016

