
*** ChampSim Multicore Out-of-Order Simulator ***

Warmup Instructions: 10000000
Simulation Instructions: 100000000
Number of CPUs: 1
Off-chip DRAM Size: 4 GiB Channels: 1 Width: 64-bit Data Rate: 3200 MT/s

VirtualMemory physical capacity: 8588881920 num_ppages: 2096895
VirtualMemory page size: 4096 log2_page_size: 12

CPU 0 runs /datasets/cs240c-wi22-a00-public/data/Assignment2/gcc_13B.trace.xz
CPU 0 Bimodal branch predictor
Basic BTB sets: 1024 ways: 8 indirect buffer size: 4096 RAS size: 64
Initialize Hawkeye state
Heartbeat CPU 0 instructions: 10000003 cycles: 2971515 heartbeat IPC: 3.36529 cumulative IPC: 3.36529 (Simulation time: 0 hr 0 min 39 sec) 

Warmup complete CPU 0 instructions: 10000003 cycles: 2971515 (Simulation time: 0 hr 0 min 39 sec) 

Heartbeat CPU 0 instructions: 20000003 cycles: 49702286 heartbeat IPC: 0.213992 cumulative IPC: 0.213992 (Simulation time: 0 hr 2 min 34 sec) 
Heartbeat CPU 0 instructions: 30000002 cycles: 102547255 heartbeat IPC: 0.189233 cumulative IPC: 0.200852 (Simulation time: 0 hr 4 min 40 sec) 
Heartbeat CPU 0 instructions: 40000004 cycles: 137973896 heartbeat IPC: 0.282274 cumulative IPC: 0.222218 (Simulation time: 0 hr 6 min 29 sec) 
Heartbeat CPU 0 instructions: 50000002 cycles: 156191569 heartbeat IPC: 0.548917 cumulative IPC: 0.261062 (Simulation time: 0 hr 7 min 12 sec) 
Heartbeat CPU 0 instructions: 60000003 cycles: 174184778 heartbeat IPC: 0.555765 cumulative IPC: 0.292033 (Simulation time: 0 hr 7 min 55 sec) 
Heartbeat CPU 0 instructions: 70000000 cycles: 191917048 heartbeat IPC: 0.563943 cumulative IPC: 0.317552 (Simulation time: 0 hr 8 min 39 sec) 
Heartbeat CPU 0 instructions: 80000002 cycles: 208814566 heartbeat IPC: 0.591803 cumulative IPC: 0.340065 (Simulation time: 0 hr 9 min 19 sec) 
Heartbeat CPU 0 instructions: 90000000 cycles: 226951177 heartbeat IPC: 0.551371 cumulative IPC: 0.357175 (Simulation time: 0 hr 10 min 2 sec) 
Heartbeat CPU 0 instructions: 100000000 cycles: 244713985 heartbeat IPC: 0.562974 cumulative IPC: 0.372297 (Simulation time: 0 hr 10 min 42 sec) 
Heartbeat CPU 0 instructions: 110000002 cycles: 269486198 heartbeat IPC: 0.403678 cumulative IPC: 0.375214 (Simulation time: 0 hr 11 min 34 sec) 
Finished CPU 0 instructions: 100000004 cycles: 266514684 cumulative IPC: 0.375214 (Simulation time: 0 hr 11 min 34 sec) 

ChampSim completed all CPUs

Region of Interest Statistics

CPU 0 cumulative IPC: 0.375214 instructions: 100000004 cycles: 266514684
cpu0_DTLB TOTAL     ACCESS:   19465163  HIT:   19362974  MISS:     102189
cpu0_DTLB LOAD      ACCESS:   14028970  HIT:   13941755  MISS:      87215
cpu0_DTLB RFO       ACCESS:    5436193  HIT:    5421219  MISS:      14974
cpu0_DTLB PREFETCH  ACCESS:          0  HIT:          0  MISS:          0
cpu0_DTLB WRITEBACK ACCESS:          0  HIT:          0  MISS:          0
cpu0_DTLB TRANSLATION ACCESS:          0  HIT:          0  MISS:          0
cpu0_DTLB PREFETCH  REQUESTED:          0  ISSUED:          0  USEFUL:          0  USELESS:          0
cpu0_DTLB AVERAGE MISS LATENCY: 28.7151 cycles
cpu0_ITLB TOTAL     ACCESS:   10353030  HIT:   10352969  MISS:         61
cpu0_ITLB LOAD      ACCESS:   10353030  HIT:   10352969  MISS:         61
cpu0_ITLB RFO       ACCESS:          0  HIT:          0  MISS:          0
cpu0_ITLB PREFETCH  ACCESS:          0  HIT:          0  MISS:          0
cpu0_ITLB WRITEBACK ACCESS:          0  HIT:          0  MISS:          0
cpu0_ITLB TRANSLATION ACCESS:          0  HIT:          0  MISS:          0
cpu0_ITLB PREFETCH  REQUESTED:          0  ISSUED:          0  USEFUL:          0  USELESS:          0
cpu0_ITLB AVERAGE MISS LATENCY: 143.836 cycles
cpu0_L1I TOTAL     ACCESS:    6565303  HIT:    6564931  MISS:        372
cpu0_L1I LOAD      ACCESS:    6565303  HIT:    6564931  MISS:        372
cpu0_L1I RFO       ACCESS:          0  HIT:          0  MISS:          0
cpu0_L1I PREFETCH  ACCESS:          0  HIT:          0  MISS:          0
cpu0_L1I WRITEBACK ACCESS:          0  HIT:          0  MISS:          0
cpu0_L1I TRANSLATION ACCESS:          0  HIT:          0  MISS:          0
cpu0_L1I PREFETCH  REQUESTED:          0  ISSUED:          0  USEFUL:          0  USELESS:          0
cpu0_L1I AVERAGE MISS LATENCY: 173.75 cycles
cpu0_STLB TOTAL     ACCESS:     102250  HIT:      33350  MISS:      68900
cpu0_STLB LOAD      ACCESS:      87276  HIT:      30309  MISS:      56967
cpu0_STLB RFO       ACCESS:      14974  HIT:       3041  MISS:      11933
cpu0_STLB PREFETCH  ACCESS:          0  HIT:          0  MISS:          0
cpu0_STLB WRITEBACK ACCESS:          0  HIT:          0  MISS:          0
cpu0_STLB TRANSLATION ACCESS:          0  HIT:          0  MISS:          0
cpu0_STLB PREFETCH  REQUESTED:          0  ISSUED:          0  USEFUL:          0  USELESS:          0
cpu0_STLB AVERAGE MISS LATENCY: 29.3537 cycles
cpu0_L1D TOTAL     ACCESS:   26269387  HIT:   24725627  MISS:    1543760
cpu0_L1D LOAD      ACCESS:   12779452  HIT:   11512721  MISS:    1266731
cpu0_L1D RFO       ACCESS:   13421251  HIT:   13145294  MISS:     275957
cpu0_L1D PREFETCH  ACCESS:          0  HIT:          0  MISS:          0
cpu0_L1D WRITEBACK ACCESS:          0  HIT:          0  MISS:          0
cpu0_L1D TRANSLATION ACCESS:      68684  HIT:      67612  MISS:       1072
cpu0_L1D PREFETCH  REQUESTED:          0  ISSUED:          0  USEFUL:          0  USELESS:          0
cpu0_L1D AVERAGE MISS LATENCY: 260.735 cycles
cpu0_L2C TOTAL     ACCESS:    1956891  HIT:     461834  MISS:    1495057
cpu0_L2C LOAD      ACCESS:    1267103  HIT:      46445  MISS:    1220658
cpu0_L2C RFO       ACCESS:     275957  HIT:       1818  MISS:     274139
cpu0_L2C PREFETCH  ACCESS:          0  HIT:          0  MISS:          0
cpu0_L2C WRITEBACK ACCESS:     412759  HIT:     412708  MISS:         51
cpu0_L2C TRANSLATION ACCESS:       1072  HIT:        863  MISS:        209
cpu0_L2C PREFETCH  REQUESTED:          0  ISSUED:          0  USEFUL:          0  USELESS:          0
cpu0_L2C AVERAGE MISS LATENCY: 257.879 cycles
LLC TOTAL     ACCESS:    1905473  HIT:     271754  MISS:    1633719
LLC LOAD      ACCESS:    1220657  HIT:     152765  MISS:    1067892
LLC RFO       ACCESS:     274139  HIT:      31385  MISS:     242754
LLC PREFETCH  ACCESS:          0  HIT:          0  MISS:          0
LLC WRITEBACK ACCESS:     410468  HIT:      87494  MISS:     322974
LLC TRANSLATION ACCESS:        209  HIT:        110  MISS:         99
LLC PREFETCH  REQUESTED:          0  ISSUED:          0  USEFUL:          0  USELESS:          0
LLC AVERAGE MISS LATENCY: 216.773 cycles
OPTgen accesses: 30444
OPTgen hits: 5160
OPTgen hit rate: 16.9492



DRAM Statistics
 CHANNEL 0
 RQ ROW_BUFFER_HIT:     206895  ROW_BUFFER_MISS:    1103793
 DBUS AVG_CONGESTED_CYCLE:    3.93143
 WQ ROW_BUFFER_HIT:      46559  ROW_BUFFER_MISS:     343851  FULL:      13121


CPU 0 Branch Prediction Accuracy: 87.437% MPKI: 28.6507 Average ROB Occupancy at Mispredict: 19.8526
Branch type MPKI
BRANCH_DIRECT_JUMP: 0.0008
BRANCH_INDIRECT: 0.00403
BRANCH_CONDITIONAL: 28.6428
BRANCH_DIRECT_CALL: 0.00114
BRANCH_INDIRECT_CALL: 0.0008
BRANCH_RETURN: 0.00114

