
*** ChampSim Multicore Out-of-Order Simulator ***

Warmup Instructions: 10000000
Simulation Instructions: 100000000
Number of CPUs: 1
Off-chip DRAM Size: 4 GiB Channels: 1 Width: 64-bit Data Rate: 3200 MT/s

VirtualMemory physical capacity: 8588881920 num_ppages: 2096895
VirtualMemory page size: 4096 log2_page_size: 12

CPU 0 runs /datasets/cs240c-wi22-a00-public/data/Assignment2/h264ref_178B.trace.xz
CPU 0 Bimodal branch predictor
Basic BTB sets: 1024 ways: 8 indirect buffer size: 4096 RAS size: 64
Initialize Hawkeye state
Heartbeat CPU 0 instructions: 10000000 cycles: 3417071 heartbeat IPC: 2.92648 cumulative IPC: 2.92648 (Simulation time: 0 hr 0 min 45 sec) 

Warmup complete CPU 0 instructions: 10000002 cycles: 3417073 (Simulation time: 0 hr 0 min 45 sec) 

Heartbeat CPU 0 instructions: 20000003 cycles: 9539256 heartbeat IPC: 1.6334 cumulative IPC: 1.6334 (Simulation time: 0 hr 1 min 47 sec) 
Heartbeat CPU 0 instructions: 30000002 cycles: 15223179 heartbeat IPC: 1.75935 cumulative IPC: 1.69404 (Simulation time: 0 hr 2 min 46 sec) 
Heartbeat CPU 0 instructions: 40000002 cycles: 21158404 heartbeat IPC: 1.68486 cumulative IPC: 1.69097 (Simulation time: 0 hr 3 min 28 sec) 
Heartbeat CPU 0 instructions: 50000004 cycles: 28391046 heartbeat IPC: 1.38262 cumulative IPC: 1.60167 (Simulation time: 0 hr 4 min 21 sec) 
Heartbeat CPU 0 instructions: 60000004 cycles: 34527605 heartbeat IPC: 1.62958 cumulative IPC: 1.60717 (Simulation time: 0 hr 5 min 24 sec) 
Heartbeat CPU 0 instructions: 70000003 cycles: 39935631 heartbeat IPC: 1.8491 cumulative IPC: 1.643 (Simulation time: 0 hr 6 min 18 sec) 
Heartbeat CPU 0 instructions: 80000001 cycles: 47690468 heartbeat IPC: 1.28952 cumulative IPC: 1.58108 (Simulation time: 0 hr 6 min 59 sec) 
Heartbeat CPU 0 instructions: 90000004 cycles: 53989443 heartbeat IPC: 1.58756 cumulative IPC: 1.58189 (Simulation time: 0 hr 7 min 58 sec) 
Heartbeat CPU 0 instructions: 100000000 cycles: 60050048 heartbeat IPC: 1.65 cumulative IPC: 1.58918 (Simulation time: 0 hr 8 min 59 sec) 
Heartbeat CPU 0 instructions: 110000003 cycles: 65989749 heartbeat IPC: 1.68359 cumulative IPC: 1.59814 (Simulation time: 0 hr 9 min 45 sec) 
Finished CPU 0 instructions: 100000001 cycles: 62572676 cumulative IPC: 1.59814 (Simulation time: 0 hr 9 min 45 sec) 

ChampSim completed all CPUs

Region of Interest Statistics

CPU 0 cumulative IPC: 1.59814 instructions: 100000001 cycles: 62572676
cpu0_DTLB TOTAL     ACCESS:   21807510  HIT:   21680798  MISS:     126712
cpu0_DTLB LOAD      ACCESS:   18465441  HIT:   18371794  MISS:      93647
cpu0_DTLB RFO       ACCESS:    3342069  HIT:    3309004  MISS:      33065
cpu0_DTLB PREFETCH  ACCESS:          0  HIT:          0  MISS:          0
cpu0_DTLB WRITEBACK ACCESS:          0  HIT:          0  MISS:          0
cpu0_DTLB TRANSLATION ACCESS:          0  HIT:          0  MISS:          0
cpu0_DTLB PREFETCH  REQUESTED:          0  ISSUED:          0  USEFUL:          0  USELESS:          0
cpu0_DTLB AVERAGE MISS LATENCY: 9.89756 cycles
cpu0_ITLB TOTAL     ACCESS:    5569373  HIT:    5569030  MISS:        343
cpu0_ITLB LOAD      ACCESS:    5569373  HIT:    5569030  MISS:        343
cpu0_ITLB RFO       ACCESS:          0  HIT:          0  MISS:          0
cpu0_ITLB PREFETCH  ACCESS:          0  HIT:          0  MISS:          0
cpu0_ITLB WRITEBACK ACCESS:          0  HIT:          0  MISS:          0
cpu0_ITLB TRANSLATION ACCESS:          0  HIT:          0  MISS:          0
cpu0_ITLB PREFETCH  REQUESTED:          0  ISSUED:          0  USEFUL:          0  USELESS:          0
cpu0_ITLB AVERAGE MISS LATENCY: 9.86006 cycles
cpu0_L1I TOTAL     ACCESS:    5686185  HIT:    5671681  MISS:      14504
cpu0_L1I LOAD      ACCESS:    5686185  HIT:    5671681  MISS:      14504
cpu0_L1I RFO       ACCESS:          0  HIT:          0  MISS:          0
cpu0_L1I PREFETCH  ACCESS:          0  HIT:          0  MISS:          0
cpu0_L1I WRITEBACK ACCESS:          0  HIT:          0  MISS:          0
cpu0_L1I TRANSLATION ACCESS:          0  HIT:          0  MISS:          0
cpu0_L1I PREFETCH  REQUESTED:          0  ISSUED:          0  USEFUL:          0  USELESS:          0
cpu0_L1I AVERAGE MISS LATENCY: 43.434 cycles
cpu0_STLB TOTAL     ACCESS:     127055  HIT:     126287  MISS:        768
cpu0_STLB LOAD      ACCESS:      93990  HIT:      93613  MISS:        377
cpu0_STLB RFO       ACCESS:      33065  HIT:      32674  MISS:        391
cpu0_STLB PREFETCH  ACCESS:          0  HIT:          0  MISS:          0
cpu0_STLB WRITEBACK ACCESS:          0  HIT:          0  MISS:          0
cpu0_STLB TRANSLATION ACCESS:          0  HIT:          0  MISS:          0
cpu0_STLB PREFETCH  REQUESTED:          0  ISSUED:          0  USEFUL:          0  USELESS:          0
cpu0_STLB AVERAGE MISS LATENCY: 147.059 cycles
cpu0_L1D TOTAL     ACCESS:   23019930  HIT:   22706936  MISS:     312994
cpu0_L1D LOAD      ACCESS:   17156671  HIT:   16934499  MISS:     222172
cpu0_L1D RFO       ACCESS:    5862580  HIT:    5771893  MISS:      90687
cpu0_L1D PREFETCH  ACCESS:          0  HIT:          0  MISS:          0
cpu0_L1D WRITEBACK ACCESS:          0  HIT:          0  MISS:          0
cpu0_L1D TRANSLATION ACCESS:        679  HIT:        544  MISS:        135
cpu0_L1D PREFETCH  REQUESTED:          0  ISSUED:          0  USEFUL:          0  USELESS:          0
cpu0_L1D AVERAGE MISS LATENCY: 70.5114 cycles
cpu0_L2C TOTAL     ACCESS:     420085  HIT:     239150  MISS:     180935
cpu0_L2C LOAD      ACCESS:     236674  HIT:     140954  MISS:      95720
cpu0_L2C RFO       ACCESS:      90685  HIT:       5590  MISS:      85095
cpu0_L2C PREFETCH  ACCESS:          0  HIT:          0  MISS:          0
cpu0_L2C WRITEBACK ACCESS:      92591  HIT:      92485  MISS:        106
cpu0_L2C TRANSLATION ACCESS:        135  HIT:        121  MISS:         14
cpu0_L2C PREFETCH  REQUESTED:          0  ISSUED:          0  USEFUL:          0  USELESS:          0
cpu0_L2C AVERAGE MISS LATENCY: 105.476 cycles
LLC TOTAL     ACCESS:     270687  HIT:     194582  MISS:      76105
LLC LOAD      ACCESS:      95720  HIT:      65822  MISS:      29898
LLC RFO       ACCESS:      85095  HIT:      48906  MISS:      36189
LLC PREFETCH  ACCESS:          0  HIT:          0  MISS:          0
LLC WRITEBACK ACCESS:      89858  HIT:      79842  MISS:      10016
LLC TRANSLATION ACCESS:         14  HIT:         12  MISS:          2
LLC PREFETCH  REQUESTED:          0  ISSUED:          0  USEFUL:          0  USELESS:          0
LLC AVERAGE MISS LATENCY: 200.862 cycles
OPTgen accesses: 3217
OPTgen hits: 2155
OPTgen hit rate: 66.9879



DRAM Statistics
 CHANNEL 0
 RQ ROW_BUFFER_HIT:      19809  ROW_BUFFER_MISS:      46261
 DBUS AVG_CONGESTED_CYCLE:    3.91815
 WQ ROW_BUFFER_HIT:       4395  ROW_BUFFER_MISS:      29871  FULL:        172


CPU 0 Branch Prediction Accuracy: 94.363% MPKI: 4.48464 Average ROB Occupancy at Mispredict: 160.41
Branch type MPKI
BRANCH_DIRECT_JUMP: 0.00024
BRANCH_INDIRECT: 0.00166
BRANCH_CONDITIONAL: 4.48115
BRANCH_DIRECT_CALL: 6e-05
BRANCH_INDIRECT_CALL: 0.00061
BRANCH_RETURN: 0.00092

