
*** ChampSim Multicore Out-of-Order Simulator ***

Warmup Instructions: 10000000
Simulation Instructions: 100000000
Number of CPUs: 1
Off-chip DRAM Size: 4 GiB Channels: 1 Width: 64-bit Data Rate: 3200 MT/s

VirtualMemory physical capacity: 8588881920 num_ppages: 2096895
VirtualMemory page size: 4096 log2_page_size: 12

CPU 0 runs /datasets/cs240c-wi22-a00-public/data/Assignment2/hmmer_7B.trace.xz
CPU 0 Bimodal branch predictor
Basic BTB sets: 1024 ways: 8 indirect buffer size: 4096 RAS size: 64
Initialize Hawkeye state
Heartbeat CPU 0 instructions: 10000004 cycles: 3986065 heartbeat IPC: 2.50874 cumulative IPC: 2.50874 (Simulation time: 0 hr 0 min 53 sec) 

Warmup complete CPU 0 instructions: 10000004 cycles: 3986065 (Simulation time: 0 hr 0 min 53 sec) 

Heartbeat CPU 0 instructions: 20000004 cycles: 9287548 heartbeat IPC: 1.88626 cumulative IPC: 1.88626 (Simulation time: 0 hr 2 min 7 sec) 
Heartbeat CPU 0 instructions: 30000001 cycles: 14192775 heartbeat IPC: 2.03864 cumulative IPC: 1.95949 (Simulation time: 0 hr 3 min 20 sec) 
Heartbeat CPU 0 instructions: 40000001 cycles: 18711582 heartbeat IPC: 2.21297 cumulative IPC: 2.03728 (Simulation time: 0 hr 4 min 30 sec) 
Heartbeat CPU 0 instructions: 50000000 cycles: 24031373 heartbeat IPC: 1.87977 cumulative IPC: 1.99548 (Simulation time: 0 hr 5 min 45 sec) 
Heartbeat CPU 0 instructions: 60000000 cycles: 28367164 heartbeat IPC: 2.30638 cumulative IPC: 2.05077 (Simulation time: 0 hr 6 min 53 sec) 
Heartbeat CPU 0 instructions: 70000003 cycles: 32690540 heartbeat IPC: 2.31301 cumulative IPC: 2.09027 (Simulation time: 0 hr 8 min 4 sec) 
Heartbeat CPU 0 instructions: 80000001 cycles: 37000257 heartbeat IPC: 2.32034 cumulative IPC: 2.1203 (Simulation time: 0 hr 9 min 13 sec) 
Heartbeat CPU 0 instructions: 90000004 cycles: 41319864 heartbeat IPC: 2.31503 cumulative IPC: 2.14283 (Simulation time: 0 hr 10 min 24 sec) 
Heartbeat CPU 0 instructions: 100000002 cycles: 45638927 heartbeat IPC: 2.31532 cumulative IPC: 2.16072 (Simulation time: 0 hr 11 min 35 sec) 
Heartbeat CPU 0 instructions: 110000001 cycles: 49967705 heartbeat IPC: 2.31012 cumulative IPC: 2.17478 (Simulation time: 0 hr 12 min 47 sec) 
Finished CPU 0 instructions: 100000002 cycles: 45981641 cumulative IPC: 2.17478 (Simulation time: 0 hr 12 min 47 sec) 

ChampSim completed all CPUs

Region of Interest Statistics

CPU 0 cumulative IPC: 2.17478 instructions: 100000002 cycles: 45981641
cpu0_DTLB TOTAL     ACCESS:   40544235  HIT:   40530064  MISS:      14171
cpu0_DTLB LOAD      ACCESS:   32388913  HIT:   32381179  MISS:       7734
cpu0_DTLB RFO       ACCESS:    8155322  HIT:    8148885  MISS:       6437
cpu0_DTLB PREFETCH  ACCESS:          0  HIT:          0  MISS:          0
cpu0_DTLB WRITEBACK ACCESS:          0  HIT:          0  MISS:          0
cpu0_DTLB TRANSLATION ACCESS:          0  HIT:          0  MISS:          0
cpu0_DTLB PREFETCH  REQUESTED:          0  ISSUED:          0  USEFUL:          0  USELESS:          0
cpu0_DTLB AVERAGE MISS LATENCY: 14.8683 cycles
cpu0_ITLB TOTAL     ACCESS:     798209  HIT:     798137  MISS:         72
cpu0_ITLB LOAD      ACCESS:     798209  HIT:     798137  MISS:         72
cpu0_ITLB RFO       ACCESS:          0  HIT:          0  MISS:          0
cpu0_ITLB PREFETCH  ACCESS:          0  HIT:          0  MISS:          0
cpu0_ITLB WRITEBACK ACCESS:          0  HIT:          0  MISS:          0
cpu0_ITLB TRANSLATION ACCESS:          0  HIT:          0  MISS:          0
cpu0_ITLB PREFETCH  REQUESTED:          0  ISSUED:          0  USEFUL:          0  USELESS:          0
cpu0_ITLB AVERAGE MISS LATENCY: 23.2639 cycles
cpu0_L1I TOTAL     ACCESS:      62161  HIT:      62056  MISS:        105
cpu0_L1I LOAD      ACCESS:      62161  HIT:      62056  MISS:        105
cpu0_L1I RFO       ACCESS:          0  HIT:          0  MISS:          0
cpu0_L1I PREFETCH  ACCESS:          0  HIT:          0  MISS:          0
cpu0_L1I WRITEBACK ACCESS:          0  HIT:          0  MISS:          0
cpu0_L1I TRANSLATION ACCESS:          0  HIT:          0  MISS:          0
cpu0_L1I PREFETCH  REQUESTED:          0  ISSUED:          0  USEFUL:          0  USELESS:          0
cpu0_L1I AVERAGE MISS LATENCY: 108.743 cycles
cpu0_STLB TOTAL     ACCESS:      14243  HIT:      13788  MISS:        455
cpu0_STLB LOAD      ACCESS:       7806  HIT:       7798  MISS:          8
cpu0_STLB RFO       ACCESS:       6437  HIT:       5990  MISS:        447
cpu0_STLB PREFETCH  ACCESS:          0  HIT:          0  MISS:          0
cpu0_STLB WRITEBACK ACCESS:          0  HIT:          0  MISS:          0
cpu0_STLB TRANSLATION ACCESS:          0  HIT:          0  MISS:          0
cpu0_STLB PREFETCH  REQUESTED:          0  ISSUED:          0  USEFUL:          0  USELESS:          0
cpu0_STLB AVERAGE MISS LATENCY: 184.824 cycles
cpu0_L1D TOTAL     ACCESS:   33479705  HIT:   33009634  MISS:     470071
cpu0_L1D LOAD      ACCESS:   28673737  HIT:   28512397  MISS:     161340
cpu0_L1D RFO       ACCESS:    4805514  HIT:    4496806  MISS:     308708
cpu0_L1D PREFETCH  ACCESS:          0  HIT:          0  MISS:          0
cpu0_L1D WRITEBACK ACCESS:          0  HIT:          0  MISS:          0
cpu0_L1D TRANSLATION ACCESS:        454  HIT:        431  MISS:         23
cpu0_L1D PREFETCH  REQUESTED:          0  ISSUED:          0  USEFUL:          0  USELESS:          0
cpu0_L1D AVERAGE MISS LATENCY: 250.304 cycles
cpu0_L2C TOTAL     ACCESS:     777225  HIT:     472302  MISS:     304923
cpu0_L2C LOAD      ACCESS:     161445  HIT:     149211  MISS:      12234
cpu0_L2C RFO       ACCESS:     308708  HIT:      16074  MISS:     292634
cpu0_L2C PREFETCH  ACCESS:          0  HIT:          0  MISS:          0
cpu0_L2C WRITEBACK ACCESS:     307049  HIT:     307002  MISS:         47
cpu0_L2C TRANSLATION ACCESS:         23  HIT:         15  MISS:          8
cpu0_L2C PREFETCH  REQUESTED:          0  ISSUED:          0  USEFUL:          0  USELESS:          0
cpu0_L2C AVERAGE MISS LATENCY: 368.933 cycles
LLC TOTAL     ACCESS:     596442  HIT:     451531  MISS:     144911
LLC LOAD      ACCESS:      12233  HIT:      10593  MISS:       1640
LLC RFO       ACCESS:     292633  HIT:     209820  MISS:      82813
LLC PREFETCH  ACCESS:          0  HIT:          0  MISS:          0
LLC WRITEBACK ACCESS:     291568  HIT:     231114  MISS:      60454
LLC TRANSLATION ACCESS:          8  HIT:          4  MISS:          4
LLC PREFETCH  REQUESTED:          0  ISSUED:          0  USEFUL:          0  USELESS:          0
LLC AVERAGE MISS LATENCY: 732.106 cycles
OPTgen accesses: 5335
OPTgen hits: 3762
OPTgen hit rate: 70.5155



DRAM Statistics
 CHANNEL 0
 RQ ROW_BUFFER_HIT:        995  ROW_BUFFER_MISS:      83460
 DBUS AVG_CONGESTED_CYCLE:    3.99429
 WQ ROW_BUFFER_HIT:       4136  ROW_BUFFER_MISS:      78828  FULL:       9376


CPU 0 Branch Prediction Accuracy: 98.9368% MPKI: 0.40856 Average ROB Occupancy at Mispredict: 252.361
Branch type MPKI
BRANCH_DIRECT_JUMP: 0.00016
BRANCH_INDIRECT: 0.00157
BRANCH_CONDITIONAL: 0.40659
BRANCH_DIRECT_CALL: 9e-05
BRANCH_INDIRECT_CALL: 3e-05
BRANCH_RETURN: 0.00012

