
*** ChampSim Multicore Out-of-Order Simulator ***

Warmup Instructions: 10000000
Simulation Instructions: 100000000
Number of CPUs: 1
Off-chip DRAM Size: 4 GiB Channels: 1 Width: 64-bit Data Rate: 3200 MT/s

VirtualMemory physical capacity: 8588881920 num_ppages: 2096895
VirtualMemory page size: 4096 log2_page_size: 12

CPU 0 runs /datasets/cs240c-wi22-a00-public/data/Assignment2/lbm_1004B.trace.xz
CPU 0 Bimodal branch predictor
Basic BTB sets: 1024 ways: 8 indirect buffer size: 4096 RAS size: 64
Initialize Hawkeye state
Heartbeat CPU 0 instructions: 10000003 cycles: 2504746 heartbeat IPC: 3.99242 cumulative IPC: 3.99242 (Simulation time: 0 hr 0 min 26 sec) 

Warmup complete CPU 0 instructions: 10000003 cycles: 2504746 (Simulation time: 0 hr 0 min 26 sec) 

Heartbeat CPU 0 instructions: 20000004 cycles: 31966031 heartbeat IPC: 0.339429 cumulative IPC: 0.339429 (Simulation time: 0 hr 2 min 29 sec) 
Heartbeat CPU 0 instructions: 30000004 cycles: 62750437 heartbeat IPC: 0.32484 cumulative IPC: 0.331974 (Simulation time: 0 hr 4 min 41 sec) 
Heartbeat CPU 0 instructions: 40000004 cycles: 92594915 heartbeat IPC: 0.33507 cumulative IPC: 0.333 (Simulation time: 0 hr 6 min 53 sec) 
Heartbeat CPU 0 instructions: 50000004 cycles: 122079067 heartbeat IPC: 0.339165 cumulative IPC: 0.33452 (Simulation time: 0 hr 8 min 55 sec) 
Heartbeat CPU 0 instructions: 60000004 cycles: 152245099 heartbeat IPC: 0.331499 cumulative IPC: 0.333911 (Simulation time: 0 hr 11 min 1 sec) 
Heartbeat CPU 0 instructions: 70000001 cycles: 182793662 heartbeat IPC: 0.327348 cumulative IPC: 0.332799 (Simulation time: 0 hr 13 min 10 sec) 
Heartbeat CPU 0 instructions: 80000000 cycles: 238437340 heartbeat IPC: 0.179715 cumulative IPC: 0.296695 (Simulation time: 0 hr 17 min 37 sec) 
Heartbeat CPU 0 instructions: 90000003 cycles: 267688682 heartbeat IPC: 0.341865 cumulative IPC: 0.301677 (Simulation time: 0 hr 19 min 45 sec) 
Heartbeat CPU 0 instructions: 100000000 cycles: 297262098 heartbeat IPC: 0.338141 cumulative IPC: 0.305336 (Simulation time: 0 hr 21 min 54 sec) 
Heartbeat CPU 0 instructions: 110000003 cycles: 327221799 heartbeat IPC: 0.333782 cumulative IPC: 0.30796 (Simulation time: 0 hr 24 min 6 sec) 
Finished CPU 0 instructions: 100000000 cycles: 324717053 cumulative IPC: 0.30796 (Simulation time: 0 hr 24 min 6 sec) 

ChampSim completed all CPUs

Region of Interest Statistics

CPU 0 cumulative IPC: 0.30796 instructions: 100000000 cycles: 324717053
cpu0_DTLB TOTAL     ACCESS:   13658892  HIT:   13608442  MISS:      50450
cpu0_DTLB LOAD      ACCESS:    6953364  HIT:    6940745  MISS:      12619
cpu0_DTLB RFO       ACCESS:    6705528  HIT:    6667697  MISS:      37831
cpu0_DTLB PREFETCH  ACCESS:          0  HIT:          0  MISS:          0
cpu0_DTLB WRITEBACK ACCESS:          0  HIT:          0  MISS:          0
cpu0_DTLB TRANSLATION ACCESS:          0  HIT:          0  MISS:          0
cpu0_DTLB PREFETCH  REQUESTED:          0  ISSUED:          0  USEFUL:          0  USELESS:          0
cpu0_DTLB AVERAGE MISS LATENCY: 352.102 cycles
cpu0_ITLB TOTAL     ACCESS:     118550  HIT:     118549  MISS:          1
cpu0_ITLB LOAD      ACCESS:     118550  HIT:     118549  MISS:          1
cpu0_ITLB RFO       ACCESS:          0  HIT:          0  MISS:          0
cpu0_ITLB PREFETCH  ACCESS:          0  HIT:          0  MISS:          0
cpu0_ITLB WRITEBACK ACCESS:          0  HIT:          0  MISS:          0
cpu0_ITLB TRANSLATION ACCESS:          0  HIT:          0  MISS:          0
cpu0_ITLB PREFETCH  REQUESTED:          0  ISSUED:          0  USEFUL:          0  USELESS:          0
cpu0_ITLB AVERAGE MISS LATENCY: 1210 cycles
cpu0_L1I TOTAL     ACCESS:         12  HIT:          6  MISS:          6
cpu0_L1I LOAD      ACCESS:         12  HIT:          6  MISS:          6
cpu0_L1I RFO       ACCESS:          0  HIT:          0  MISS:          0
cpu0_L1I PREFETCH  ACCESS:          0  HIT:          0  MISS:          0
cpu0_L1I WRITEBACK ACCESS:          0  HIT:          0  MISS:          0
cpu0_L1I TRANSLATION ACCESS:          0  HIT:          0  MISS:          0
cpu0_L1I PREFETCH  REQUESTED:          0  ISSUED:          0  USEFUL:          0  USELESS:          0
cpu0_L1I AVERAGE MISS LATENCY: 317 cycles
cpu0_STLB TOTAL     ACCESS:      50451  HIT:          5  MISS:      50446
cpu0_STLB LOAD      ACCESS:      12620  HIT:          0  MISS:      12620
cpu0_STLB RFO       ACCESS:      37831  HIT:          5  MISS:      37826
cpu0_STLB PREFETCH  ACCESS:          0  HIT:          0  MISS:          0
cpu0_STLB WRITEBACK ACCESS:          0  HIT:          0  MISS:          0
cpu0_STLB TRANSLATION ACCESS:          0  HIT:          0  MISS:          0
cpu0_STLB PREFETCH  REQUESTED:          0  ISSUED:          0  USEFUL:          0  USELESS:          0
cpu0_STLB AVERAGE MISS LATENCY: 343.153 cycles
cpu0_L1D TOTAL     ACCESS:   15133151  HIT:    9812626  MISS:    5320525
cpu0_L1D LOAD      ACCESS:    4359232  HIT:    3552869  MISS:     806363
cpu0_L1D RFO       ACCESS:   10723486  HIT:    6209373  MISS:    4514113
cpu0_L1D PREFETCH  ACCESS:          0  HIT:          0  MISS:          0
cpu0_L1D WRITEBACK ACCESS:          0  HIT:          0  MISS:          0
cpu0_L1D TRANSLATION ACCESS:      50433  HIT:      50384  MISS:         49
cpu0_L1D PREFETCH  REQUESTED:          0  ISSUED:          0  USEFUL:          0  USELESS:          0
cpu0_L1D AVERAGE MISS LATENCY: 424.473 cycles
cpu0_L2C TOTAL     ACCESS:    9834646  HIT:    6608174  MISS:    3226472
cpu0_L2C LOAD      ACCESS:     806369  HIT:        193  MISS:     806176
cpu0_L2C RFO       ACCESS:    4514113  HIT:    2093959  MISS:    2420154
cpu0_L2C PREFETCH  ACCESS:          0  HIT:          0  MISS:          0
cpu0_L2C WRITEBACK ACCESS:    4514115  HIT:    4514022  MISS:         93
cpu0_L2C TRANSLATION ACCESS:         49  HIT:          0  MISS:         49
cpu0_L2C PREFETCH  REQUESTED:          0  ISSUED:          0  USEFUL:          0  USELESS:          0
cpu0_L2C AVERAGE MISS LATENCY: 680.441 cycles
LLC TOTAL     ACCESS:    5646863  HIT:    1628348  MISS:    4018515
LLC LOAD      ACCESS:     806176  HIT:         47  MISS:     806129
LLC RFO       ACCESS:    2420154  HIT:     614416  MISS:    1805738
LLC PREFETCH  ACCESS:          0  HIT:          0  MISS:          0
LLC WRITEBACK ACCESS:    2420484  HIT:    1013864  MISS:    1406620
LLC TRANSLATION ACCESS:         49  HIT:         21  MISS:         28
LLC PREFETCH  REQUESTED:          0  ISSUED:          0  USEFUL:          0  USELESS:          0
LLC AVERAGE MISS LATENCY: 529.467 cycles
OPTgen accesses: 55036
OPTgen hits: 14332
OPTgen hit rate: 26.0411



DRAM Statistics
 CHANNEL 0
 RQ ROW_BUFFER_HIT:      43480  ROW_BUFFER_MISS:    2568199
 DBUS AVG_CONGESTED_CYCLE:     3.9954
 WQ ROW_BUFFER_HIT:      25947  ROW_BUFFER_MISS:    2049824  FULL:          0


CPU 0 Branch Prediction Accuracy: 99.2476% MPKI: 0.09355 Average ROB Occupancy at Mispredict: 169.662
Branch type MPKI
BRANCH_DIRECT_JUMP: 2e-05
BRANCH_INDIRECT: 0
BRANCH_CONDITIONAL: 0.09349
BRANCH_DIRECT_CALL: 2e-05
BRANCH_INDIRECT_CALL: 0
BRANCH_RETURN: 2e-05

