
*** ChampSim Multicore Out-of-Order Simulator ***

Warmup Instructions: 10000000
Simulation Instructions: 100000000
Number of CPUs: 1
Off-chip DRAM Size: 4 GiB Channels: 1 Width: 64-bit Data Rate: 3200 MT/s

VirtualMemory physical capacity: 8588881920 num_ppages: 2096895
VirtualMemory page size: 4096 log2_page_size: 12

CPU 0 runs /datasets/cs240c-wi22-a00-public/data/Assignment2/milc_360B.trace.xz
CPU 0 Bimodal branch predictor
Basic BTB sets: 1024 ways: 8 indirect buffer size: 4096 RAS size: 64
Initialize Hawkeye state
Heartbeat CPU 0 instructions: 10000001 cycles: 2500103 heartbeat IPC: 3.99984 cumulative IPC: 3.99984 (Simulation time: 0 hr 0 min 30 sec) 

Warmup complete CPU 0 instructions: 10000001 cycles: 2500103 (Simulation time: 0 hr 0 min 30 sec) 

Heartbeat CPU 0 instructions: 20000000 cycles: 20098647 heartbeat IPC: 0.568229 cumulative IPC: 0.568229 (Simulation time: 0 hr 2 min 17 sec) 
Heartbeat CPU 0 instructions: 30000004 cycles: 37612964 heartbeat IPC: 0.570962 cumulative IPC: 0.569592 (Simulation time: 0 hr 3 min 57 sec) 
Heartbeat CPU 0 instructions: 40000001 cycles: 55131656 heartbeat IPC: 0.570819 cumulative IPC: 0.57 (Simulation time: 0 hr 5 min 39 sec) 
Heartbeat CPU 0 instructions: 50000001 cycles: 75939651 heartbeat IPC: 0.480585 cumulative IPC: 0.544666 (Simulation time: 0 hr 7 min 51 sec) 
Heartbeat CPU 0 instructions: 60000000 cycles: 95018034 heartbeat IPC: 0.524153 cumulative IPC: 0.540436 (Simulation time: 0 hr 9 min 30 sec) 
Heartbeat CPU 0 instructions: 70000000 cycles: 114612538 heartbeat IPC: 0.510347 cumulative IPC: 0.535177 (Simulation time: 0 hr 11 min 16 sec) 
Heartbeat CPU 0 instructions: 80000000 cycles: 131736530 heartbeat IPC: 0.583976 cumulative IPC: 0.541643 (Simulation time: 0 hr 12 min 57 sec) 
Heartbeat CPU 0 instructions: 90000000 cycles: 147810402 heartbeat IPC: 0.622128 cumulative IPC: 0.550546 (Simulation time: 0 hr 14 min 42 sec) 
Heartbeat CPU 0 instructions: 100000002 cycles: 164057043 heartbeat IPC: 0.615512 cumulative IPC: 0.557079 (Simulation time: 0 hr 16 min 28 sec) 
Heartbeat CPU 0 instructions: 110000000 cycles: 180376865 heartbeat IPC: 0.612752 cumulative IPC: 0.562187 (Simulation time: 0 hr 18 min 13 sec) 
Finished CPU 0 instructions: 100000004 cycles: 177876763 cumulative IPC: 0.562187 (Simulation time: 0 hr 18 min 13 sec) 

ChampSim completed all CPUs

Region of Interest Statistics

CPU 0 cumulative IPC: 0.562187 instructions: 100000004 cycles: 177876763
cpu0_DTLB TOTAL     ACCESS:   15521996  HIT:   15307251  MISS:     214745
cpu0_DTLB LOAD      ACCESS:    9096853  HIT:    8884323  MISS:     212530
cpu0_DTLB RFO       ACCESS:    6425143  HIT:    6422928  MISS:       2215
cpu0_DTLB PREFETCH  ACCESS:          0  HIT:          0  MISS:          0
cpu0_DTLB WRITEBACK ACCESS:          0  HIT:          0  MISS:          0
cpu0_DTLB TRANSLATION ACCESS:          0  HIT:          0  MISS:          0
cpu0_DTLB PREFETCH  REQUESTED:          0  ISSUED:          0  USEFUL:          0  USELESS:          0
cpu0_DTLB AVERAGE MISS LATENCY: 83.8168 cycles
cpu0_ITLB TOTAL     ACCESS:    2730847  HIT:    2730844  MISS:          3
cpu0_ITLB LOAD      ACCESS:    2730847  HIT:    2730844  MISS:          3
cpu0_ITLB RFO       ACCESS:          0  HIT:          0  MISS:          0
cpu0_ITLB PREFETCH  ACCESS:          0  HIT:          0  MISS:          0
cpu0_ITLB WRITEBACK ACCESS:          0  HIT:          0  MISS:          0
cpu0_ITLB TRANSLATION ACCESS:          0  HIT:          0  MISS:          0
cpu0_ITLB PREFETCH  REQUESTED:          0  ISSUED:          0  USEFUL:          0  USELESS:          0
cpu0_ITLB AVERAGE MISS LATENCY: 520.667 cycles
cpu0_L1I TOTAL     ACCESS:    6949827  HIT:    6949799  MISS:         28
cpu0_L1I LOAD      ACCESS:    6949827  HIT:    6949799  MISS:         28
cpu0_L1I RFO       ACCESS:          0  HIT:          0  MISS:          0
cpu0_L1I PREFETCH  ACCESS:          0  HIT:          0  MISS:          0
cpu0_L1I WRITEBACK ACCESS:          0  HIT:          0  MISS:          0
cpu0_L1I TRANSLATION ACCESS:          0  HIT:          0  MISS:          0
cpu0_L1I PREFETCH  REQUESTED:          0  ISSUED:          0  USEFUL:          0  USELESS:          0
cpu0_L1I AVERAGE MISS LATENCY: 232.393 cycles
cpu0_STLB TOTAL     ACCESS:     214748  HIT:        125  MISS:     214623
cpu0_STLB LOAD      ACCESS:     212533  HIT:         99  MISS:     212434
cpu0_STLB RFO       ACCESS:       2215  HIT:         26  MISS:       2189
cpu0_STLB PREFETCH  ACCESS:          0  HIT:          0  MISS:          0
cpu0_STLB WRITEBACK ACCESS:          0  HIT:          0  MISS:          0
cpu0_STLB TRANSLATION ACCESS:          0  HIT:          0  MISS:          0
cpu0_STLB PREFETCH  REQUESTED:          0  ISSUED:          0  USEFUL:          0  USELESS:          0
cpu0_STLB AVERAGE MISS LATENCY: 74.8652 cycles
cpu0_L1D TOTAL     ACCESS:   24595942  HIT:   22499551  MISS:    2096391
cpu0_L1D LOAD      ACCESS:    6420187  HIT:    4464189  MISS:    1955998
cpu0_L1D RFO       ACCESS:   17961576  HIT:   17821567  MISS:     140009
cpu0_L1D PREFETCH  ACCESS:          0  HIT:          0  MISS:          0
cpu0_L1D WRITEBACK ACCESS:          0  HIT:          0  MISS:          0
cpu0_L1D TRANSLATION ACCESS:     214179  HIT:     213795  MISS:        384
cpu0_L1D PREFETCH  REQUESTED:          0  ISSUED:          0  USEFUL:          0  USELESS:          0
cpu0_L1D AVERAGE MISS LATENCY: 339.32 cycles
cpu0_L2C TOTAL     ACCESS:    2839086  HIT:     742662  MISS:    2096424
cpu0_L2C LOAD      ACCESS:    1956026  HIT:          0  MISS:    1956026
cpu0_L2C RFO       ACCESS:     140009  HIT:          0  MISS:     140009
cpu0_L2C PREFETCH  ACCESS:          0  HIT:          0  MISS:          0
cpu0_L2C WRITEBACK ACCESS:     742667  HIT:     742660  MISS:          7
cpu0_L2C TRANSLATION ACCESS:        384  HIT:          2  MISS:        382
cpu0_L2C PREFETCH  REQUESTED:          0  ISSUED:          0  USEFUL:          0  USELESS:          0
cpu0_L2C AVERAGE MISS LATENCY: 328.217 cycles
LLC TOTAL     ACCESS:    2839080  HIT:      88584  MISS:    2750496
LLC LOAD      ACCESS:    1956026  HIT:      21933  MISS:    1934093
LLC RFO       ACCESS:     140009  HIT:          0  MISS:     140009
LLC PREFETCH  ACCESS:          0  HIT:          0  MISS:          0
LLC WRITEBACK ACCESS:     742663  HIT:      66629  MISS:     676034
LLC TRANSLATION ACCESS:        382  HIT:         22  MISS:        360
LLC PREFETCH  REQUESTED:          0  ISSUED:          0  USEFUL:          0  USELESS:          0
LLC AVERAGE MISS LATENCY: 234.16 cycles
OPTgen accesses: 35232
OPTgen hits: 574
OPTgen hit rate: 1.6292



DRAM Statistics
 CHANNEL 0
 RQ ROW_BUFFER_HIT:     362150  ROW_BUFFER_MISS:    1712309
 DBUS AVG_CONGESTED_CYCLE:    3.94674
 WQ ROW_BUFFER_HIT:      37445  ROW_BUFFER_MISS:     689965  FULL:          0


CPU 0 Branch Prediction Accuracy: 99.9991% MPKI: 0.00037 Average ROB Occupancy at Mispredict: 88.1081
Branch type MPKI
BRANCH_DIRECT_JUMP: 4e-05
BRANCH_INDIRECT: 0
BRANCH_CONDITIONAL: 0.00015
BRANCH_DIRECT_CALL: 9e-05
BRANCH_INDIRECT_CALL: 0
BRANCH_RETURN: 9e-05

