
*** ChampSim Multicore Out-of-Order Simulator ***

Warmup Instructions: 10000000
Simulation Instructions: 100000000
Number of CPUs: 1
Off-chip DRAM Size: 4 GiB Channels: 1 Width: 64-bit Data Rate: 3200 MT/s

VirtualMemory physical capacity: 8588881920 num_ppages: 2096895
VirtualMemory page size: 4096 log2_page_size: 12

CPU 0 runs /datasets/cs240c-wi22-a00-public/data/Assignment2/sjeng_1966B.trace.xz
CPU 0 Bimodal branch predictor
Basic BTB sets: 1024 ways: 8 indirect buffer size: 4096 RAS size: 64
Initialize Hawkeye state
Heartbeat CPU 0 instructions: 10000000 cycles: 2500209 heartbeat IPC: 3.99967 cumulative IPC: 3.99967 (Simulation time: 0 hr 0 min 32 sec) 

Warmup complete CPU 0 instructions: 10000004 cycles: 2500210 (Simulation time: 0 hr 0 min 32 sec) 

Heartbeat CPU 0 instructions: 20000000 cycles: 14802922 heartbeat IPC: 0.812829 cumulative IPC: 0.812829 (Simulation time: 0 hr 1 min 11 sec) 
Heartbeat CPU 0 instructions: 30000001 cycles: 26648469 heartbeat IPC: 0.844199 cumulative IPC: 0.828217 (Simulation time: 0 hr 1 min 50 sec) 
Heartbeat CPU 0 instructions: 40000000 cycles: 37958595 heartbeat IPC: 0.884163 cumulative IPC: 0.846062 (Simulation time: 0 hr 2 min 28 sec) 
Heartbeat CPU 0 instructions: 50000004 cycles: 49633711 heartbeat IPC: 0.856523 cumulative IPC: 0.848653 (Simulation time: 0 hr 3 min 6 sec) 
Heartbeat CPU 0 instructions: 60000002 cycles: 60815210 heartbeat IPC: 0.894334 cumulative IPC: 0.857412 (Simulation time: 0 hr 3 min 44 sec) 
Heartbeat CPU 0 instructions: 70000000 cycles: 71515186 heartbeat IPC: 0.934581 cumulative IPC: 0.869376 (Simulation time: 0 hr 4 min 21 sec) 
Heartbeat CPU 0 instructions: 80000002 cycles: 82631594 heartbeat IPC: 0.899571 cumulative IPC: 0.873565 (Simulation time: 0 hr 4 min 57 sec) 
Heartbeat CPU 0 instructions: 90000000 cycles: 93960086 heartbeat IPC: 0.88273 cumulative IPC: 0.8747 (Simulation time: 0 hr 5 min 34 sec) 
Heartbeat CPU 0 instructions: 100000000 cycles: 105564131 heartbeat IPC: 0.861768 cumulative IPC: 0.873244 (Simulation time: 0 hr 6 min 10 sec) 
Heartbeat CPU 0 instructions: 110000002 cycles: 117701534 heartbeat IPC: 0.8239 cumulative IPC: 0.868046 (Simulation time: 0 hr 6 min 47 sec) 
Finished CPU 0 instructions: 100000000 cycles: 115201332 cumulative IPC: 0.868046 (Simulation time: 0 hr 6 min 47 sec) 

ChampSim completed all CPUs

Region of Interest Statistics

CPU 0 cumulative IPC: 0.868046 instructions: 100000000 cycles: 115201332
cpu0_DTLB TOTAL     ACCESS:   20959605  HIT:   20805105  MISS:     154500
cpu0_DTLB LOAD      ACCESS:   15817868  HIT:   15687941  MISS:     129927
cpu0_DTLB RFO       ACCESS:    5141737  HIT:    5117164  MISS:      24573
cpu0_DTLB PREFETCH  ACCESS:          0  HIT:          0  MISS:          0
cpu0_DTLB WRITEBACK ACCESS:          0  HIT:          0  MISS:          0
cpu0_DTLB TRANSLATION ACCESS:          0  HIT:          0  MISS:          0
cpu0_DTLB PREFETCH  REQUESTED:          0  ISSUED:          0  USEFUL:          0  USELESS:          0
cpu0_DTLB AVERAGE MISS LATENCY: 34.76 cycles
cpu0_ITLB TOTAL     ACCESS:    9570540  HIT:    9570540  MISS:          0
cpu0_ITLB LOAD      ACCESS:    9570540  HIT:    9570540  MISS:          0
cpu0_ITLB RFO       ACCESS:          0  HIT:          0  MISS:          0
cpu0_ITLB PREFETCH  ACCESS:          0  HIT:          0  MISS:          0
cpu0_ITLB WRITEBACK ACCESS:          0  HIT:          0  MISS:          0
cpu0_ITLB TRANSLATION ACCESS:          0  HIT:          0  MISS:          0
cpu0_ITLB PREFETCH  REQUESTED:          0  ISSUED:          0  USEFUL:          0  USELESS:          0
cpu0_ITLB AVERAGE MISS LATENCY: -nan cycles
cpu0_L1I TOTAL     ACCESS:    7799520  HIT:    7796538  MISS:       2982
cpu0_L1I LOAD      ACCESS:    7799520  HIT:    7796538  MISS:       2982
cpu0_L1I RFO       ACCESS:          0  HIT:          0  MISS:          0
cpu0_L1I PREFETCH  ACCESS:          0  HIT:          0  MISS:          0
cpu0_L1I WRITEBACK ACCESS:          0  HIT:          0  MISS:          0
cpu0_L1I TRANSLATION ACCESS:          0  HIT:          0  MISS:          0
cpu0_L1I PREFETCH  REQUESTED:          0  ISSUED:          0  USEFUL:          0  USELESS:          0
cpu0_L1I AVERAGE MISS LATENCY: 16.9249 cycles
cpu0_STLB TOTAL     ACCESS:     154500  HIT:     120068  MISS:      34432
cpu0_STLB LOAD      ACCESS:     129927  HIT:      95716  MISS:      34211
cpu0_STLB RFO       ACCESS:      24573  HIT:      24352  MISS:        221
cpu0_STLB PREFETCH  ACCESS:          0  HIT:          0  MISS:          0
cpu0_STLB WRITEBACK ACCESS:          0  HIT:          0  MISS:          0
cpu0_STLB TRANSLATION ACCESS:          0  HIT:          0  MISS:          0
cpu0_STLB PREFETCH  REQUESTED:          0  ISSUED:          0  USEFUL:          0  USELESS:          0
cpu0_STLB AVERAGE MISS LATENCY: 115.56 cycles
cpu0_L1D TOTAL     ACCESS:   24776246  HIT:   24698514  MISS:      77732
cpu0_L1D LOAD      ACCESS:   16549207  HIT:   16489744  MISS:      59463
cpu0_L1D RFO       ACCESS:    8192608  HIT:    8174868  MISS:      17740
cpu0_L1D PREFETCH  ACCESS:          0  HIT:          0  MISS:          0
cpu0_L1D WRITEBACK ACCESS:          0  HIT:          0  MISS:          0
cpu0_L1D TRANSLATION ACCESS:      34431  HIT:      33902  MISS:        529
cpu0_L1D PREFETCH  REQUESTED:          0  ISSUED:          0  USEFUL:          0  USELESS:          0
cpu0_L1D AVERAGE MISS LATENCY: 105.138 cycles
cpu0_L2C TOTAL     ACCESS:     129943  HIT:      87934  MISS:      42009
cpu0_L2C LOAD      ACCESS:      62445  HIT:      23831  MISS:      38614
cpu0_L2C RFO       ACCESS:      17737  HIT:      14429  MISS:       3308
cpu0_L2C PREFETCH  ACCESS:          0  HIT:          0  MISS:          0
cpu0_L2C WRITEBACK ACCESS:      49232  HIT:      49157  MISS:         75
cpu0_L2C TRANSLATION ACCESS:        529  HIT:        517  MISS:         12
cpu0_L2C PREFETCH  REQUESTED:          0  ISSUED:          0  USEFUL:          0  USELESS:          0
cpu0_L2C AVERAGE MISS LATENCY: 174.592 cycles
LLC TOTAL     ACCESS:      70874  HIT:      26696  MISS:      44178
LLC LOAD      ACCESS:      38614  HIT:       1923  MISS:      36691
LLC RFO       ACCESS:       3308  HIT:        475  MISS:       2833
LLC PREFETCH  ACCESS:          0  HIT:          0  MISS:          0
LLC WRITEBACK ACCESS:      28940  HIT:      24289  MISS:       4651
LLC TRANSLATION ACCESS:         12  HIT:          9  MISS:          3
LLC PREFETCH  REQUESTED:          0  ISSUED:          0  USEFUL:          0  USELESS:          0
LLC AVERAGE MISS LATENCY: 146.087 cycles
OPTgen accesses: 727
OPTgen hits: 45
OPTgen hit rate: 6.18982



DRAM Statistics
 CHANNEL 0
 RQ ROW_BUFFER_HIT:         40  ROW_BUFFER_MISS:      39486
 DBUS AVG_CONGESTED_CYCLE:    3.76525
 WQ ROW_BUFFER_HIT:        422  ROW_BUFFER_MISS:       6595  FULL:          0


CPU 0 Branch Prediction Accuracy: 85.5129% MPKI: 29.813 Average ROB Occupancy at Mispredict: 15.324
Branch type MPKI
BRANCH_DIRECT_JUMP: 0.00032
BRANCH_INDIRECT: 1.15603
BRANCH_CONDITIONAL: 28.3524
BRANCH_DIRECT_CALL: 5e-05
BRANCH_INDIRECT_CALL: 0.30409
BRANCH_RETURN: 6e-05

