
*** ChampSim Multicore Out-of-Order Simulator ***

Warmup Instructions: 10000000
Simulation Instructions: 100000000
Number of CPUs: 1
Off-chip DRAM Size: 4 GiB Channels: 1 Width: 64-bit Data Rate: 3200 MT/s

VirtualMemory physical capacity: 8588881920 num_ppages: 2096895
VirtualMemory page size: 4096 log2_page_size: 12

CPU 0 runs /datasets/cs240c-wi22-a00-public/data/Assignment2/sphinx3_883B.trace.xz
CPU 0 Bimodal branch predictor
Basic BTB sets: 1024 ways: 8 indirect buffer size: 4096 RAS size: 64
Initialize Hawkeye state
Heartbeat CPU 0 instructions: 10000003 cycles: 2628875 heartbeat IPC: 3.80391 cumulative IPC: 3.80391 (Simulation time: 0 hr 0 min 32 sec) 

Warmup complete CPU 0 instructions: 10000003 cycles: 2628875 (Simulation time: 0 hr 0 min 32 sec) 

Heartbeat CPU 0 instructions: 20000000 cycles: 15478027 heartbeat IPC: 0.778261 cumulative IPC: 0.778261 (Simulation time: 0 hr 1 min 38 sec) 
Heartbeat CPU 0 instructions: 30000001 cycles: 27774896 heartbeat IPC: 0.813215 cumulative IPC: 0.795354 (Simulation time: 0 hr 2 min 42 sec) 
Heartbeat CPU 0 instructions: 40000004 cycles: 39601570 heartbeat IPC: 0.845547 cumulative IPC: 0.81141 (Simulation time: 0 hr 3 min 47 sec) 
Heartbeat CPU 0 instructions: 50000003 cycles: 50798238 heartbeat IPC: 0.893123 cumulative IPC: 0.830403 (Simulation time: 0 hr 4 min 50 sec) 
Heartbeat CPU 0 instructions: 60000000 cycles: 62236017 heartbeat IPC: 0.874295 cumulative IPC: 0.838826 (Simulation time: 0 hr 5 min 55 sec) 
Heartbeat CPU 0 instructions: 70000001 cycles: 72005237 heartbeat IPC: 1.02362 cumulative IPC: 0.864848 (Simulation time: 0 hr 6 min 51 sec) 
Heartbeat CPU 0 instructions: 80000000 cycles: 82481484 heartbeat IPC: 0.95454 cumulative IPC: 0.876615 (Simulation time: 0 hr 7 min 49 sec) 
Heartbeat CPU 0 instructions: 90000002 cycles: 91885179 heartbeat IPC: 1.06341 cumulative IPC: 0.896295 (Simulation time: 0 hr 8 min 43 sec) 
Heartbeat CPU 0 instructions: 100000003 cycles: 100467139 heartbeat IPC: 1.16524 cumulative IPC: 0.919886 (Simulation time: 0 hr 9 min 33 sec) 
Heartbeat CPU 0 instructions: 110000003 cycles: 111171446 heartbeat IPC: 0.934203 cumulative IPC: 0.921297 (Simulation time: 0 hr 10 min 32 sec) 
Finished CPU 0 instructions: 100000000 cycles: 108542571 cumulative IPC: 0.921298 (Simulation time: 0 hr 10 min 32 sec) 

ChampSim completed all CPUs

Region of Interest Statistics

CPU 0 cumulative IPC: 0.921298 instructions: 100000000 cycles: 108542571
cpu0_DTLB TOTAL     ACCESS:   16824764  HIT:   16664796  MISS:     159968
cpu0_DTLB LOAD      ACCESS:   15457272  HIT:   15305548  MISS:     151724
cpu0_DTLB RFO       ACCESS:    1367492  HIT:    1359248  MISS:       8244
cpu0_DTLB PREFETCH  ACCESS:          0  HIT:          0  MISS:          0
cpu0_DTLB WRITEBACK ACCESS:          0  HIT:          0  MISS:          0
cpu0_DTLB TRANSLATION ACCESS:          0  HIT:          0  MISS:          0
cpu0_DTLB PREFETCH  REQUESTED:          0  ISSUED:          0  USEFUL:          0  USELESS:          0
cpu0_DTLB AVERAGE MISS LATENCY: 12.8443 cycles
cpu0_ITLB TOTAL     ACCESS:    9414949  HIT:    9414884  MISS:         65
cpu0_ITLB LOAD      ACCESS:    9414949  HIT:    9414884  MISS:         65
cpu0_ITLB RFO       ACCESS:          0  HIT:          0  MISS:          0
cpu0_ITLB PREFETCH  ACCESS:          0  HIT:          0  MISS:          0
cpu0_ITLB WRITEBACK ACCESS:          0  HIT:          0  MISS:          0
cpu0_ITLB TRANSLATION ACCESS:          0  HIT:          0  MISS:          0
cpu0_ITLB PREFETCH  REQUESTED:          0  ISSUED:          0  USEFUL:          0  USELESS:          0
cpu0_ITLB AVERAGE MISS LATENCY: 148.385 cycles
cpu0_L1I TOTAL     ACCESS:     192630  HIT:     191250  MISS:       1380
cpu0_L1I LOAD      ACCESS:     192630  HIT:     191250  MISS:       1380
cpu0_L1I RFO       ACCESS:          0  HIT:          0  MISS:          0
cpu0_L1I PREFETCH  ACCESS:          0  HIT:          0  MISS:          0
cpu0_L1I WRITEBACK ACCESS:          0  HIT:          0  MISS:          0
cpu0_L1I TRANSLATION ACCESS:          0  HIT:          0  MISS:          0
cpu0_L1I PREFETCH  REQUESTED:          0  ISSUED:          0  USEFUL:          0  USELESS:          0
cpu0_L1I AVERAGE MISS LATENCY: 190.737 cycles
cpu0_STLB TOTAL     ACCESS:     160033  HIT:      99134  MISS:      60899
cpu0_STLB LOAD      ACCESS:     151789  HIT:      92110  MISS:      59679
cpu0_STLB RFO       ACCESS:       8244  HIT:       7024  MISS:       1220
cpu0_STLB PREFETCH  ACCESS:          0  HIT:          0  MISS:          0
cpu0_STLB WRITEBACK ACCESS:          0  HIT:          0  MISS:          0
cpu0_STLB TRANSLATION ACCESS:          0  HIT:          0  MISS:          0
cpu0_STLB PREFETCH  REQUESTED:          0  ISSUED:          0  USEFUL:          0  USELESS:          0
cpu0_STLB AVERAGE MISS LATENCY: 10.1205 cycles
cpu0_L1D TOTAL     ACCESS:   12398402  HIT:   10649070  MISS:    1749332
cpu0_L1D LOAD      ACCESS:   10136695  HIT:    8502292  MISS:    1634403
cpu0_L1D RFO       ACCESS:    2203572  HIT:    2089438  MISS:     114134
cpu0_L1D PREFETCH  ACCESS:          0  HIT:          0  MISS:          0
cpu0_L1D WRITEBACK ACCESS:          0  HIT:          0  MISS:          0
cpu0_L1D TRANSLATION ACCESS:      58135  HIT:      57340  MISS:        795
cpu0_L1D PREFETCH  REQUESTED:          0  ISSUED:          0  USEFUL:          0  USELESS:          0
cpu0_L1D AVERAGE MISS LATENCY: 128.185 cycles
cpu0_L2C TOTAL     ACCESS:    1908301  HIT:     517746  MISS:    1390555
cpu0_L2C LOAD      ACCESS:    1635780  HIT:     346987  MISS:    1288793
cpu0_L2C RFO       ACCESS:     114130  HIT:      12988  MISS:     101142
cpu0_L2C PREFETCH  ACCESS:          0  HIT:          0  MISS:          0
cpu0_L2C WRITEBACK ACCESS:     157596  HIT:     157299  MISS:        297
cpu0_L2C TRANSLATION ACCESS:        795  HIT:        472  MISS:        323
cpu0_L2C PREFETCH  REQUESTED:          0  ISSUED:          0  USEFUL:          0  USELESS:          0
cpu0_L2C AVERAGE MISS LATENCY: 147.54 cycles
LLC TOTAL     ACCESS:    1524797  HIT:     649009  MISS:     875788
LLC LOAD      ACCESS:    1288793  HIT:     491839  MISS:     796954
LLC RFO       ACCESS:     101142  HIT:      56464  MISS:      44678
LLC PREFETCH  ACCESS:          0  HIT:          0  MISS:          0
LLC WRITEBACK ACCESS:     134539  HIT:     100439  MISS:      34100
LLC TRANSLATION ACCESS:        323  HIT:        267  MISS:         56
LLC PREFETCH  REQUESTED:          0  ISSUED:          0  USEFUL:          0  USELESS:          0
LLC AVERAGE MISS LATENCY: 200.923 cycles
OPTgen accesses: 23985
OPTgen hits: 11753
OPTgen hit rate: 49.0015



DRAM Statistics
 CHANNEL 0
 RQ ROW_BUFFER_HIT:      89271  ROW_BUFFER_MISS:     751838
 DBUS AVG_CONGESTED_CYCLE:    3.85743
 WQ ROW_BUFFER_HIT:      11799  ROW_BUFFER_MISS:      42892  FULL:        420


CPU 0 Branch Prediction Accuracy: 91.645% MPKI: 7.87682 Average ROB Occupancy at Mispredict: 160.907
Branch type MPKI
BRANCH_DIRECT_JUMP: 0.0017
BRANCH_INDIRECT: 0.00111
BRANCH_CONDITIONAL: 7.87013
BRANCH_DIRECT_CALL: 0.00166
BRANCH_INDIRECT_CALL: 0.0005
BRANCH_RETURN: 0.00172

