
*** ChampSim Multicore Out-of-Order Simulator ***

Warmup Instructions: 10000000
Simulation Instructions: 100000000
Number of CPUs: 1
Off-chip DRAM Size: 4 GiB Channels: 1 Width: 64-bit Data Rate: 3200 MT/s

VirtualMemory physical capacity: 8588881920 num_ppages: 2096895
VirtualMemory page size: 4096 log2_page_size: 12

CPU 0 runs /datasets/cs240c-wi22-a00-public/data/Assignment2/tonto_422B.trace.xz
CPU 0 Bimodal branch predictor
Basic BTB sets: 1024 ways: 8 indirect buffer size: 4096 RAS size: 64
Initialize Hawkeye state
Heartbeat CPU 0 instructions: 10000003 cycles: 2501969 heartbeat IPC: 3.99685 cumulative IPC: 3.99685 (Simulation time: 0 hr 0 min 28 sec) 

Warmup complete CPU 0 instructions: 10000003 cycles: 2501969 (Simulation time: 0 hr 0 min 28 sec) 

Heartbeat CPU 0 instructions: 20000000 cycles: 8975831 heartbeat IPC: 1.54467 cumulative IPC: 1.54467 (Simulation time: 0 hr 1 min 10 sec) 
Heartbeat CPU 0 instructions: 30000000 cycles: 15445583 heartbeat IPC: 1.54565 cumulative IPC: 1.54516 (Simulation time: 0 hr 1 min 52 sec) 
Heartbeat CPU 0 instructions: 40000002 cycles: 22042140 heartbeat IPC: 1.51594 cumulative IPC: 1.5353 (Simulation time: 0 hr 2 min 33 sec) 
Heartbeat CPU 0 instructions: 50000003 cycles: 29584299 heartbeat IPC: 1.32588 cumulative IPC: 1.47698 (Simulation time: 0 hr 3 min 21 sec) 
Heartbeat CPU 0 instructions: 60000000 cycles: 37042434 heartbeat IPC: 1.34082 cumulative IPC: 1.44758 (Simulation time: 0 hr 4 min 15 sec) 
Heartbeat CPU 0 instructions: 70000002 cycles: 43566811 heartbeat IPC: 1.53271 cumulative IPC: 1.4611 (Simulation time: 0 hr 5 min 5 sec) 
Heartbeat CPU 0 instructions: 80000004 cycles: 49833330 heartbeat IPC: 1.59578 cumulative IPC: 1.47893 (Simulation time: 0 hr 5 min 54 sec) 
Heartbeat CPU 0 instructions: 90000000 cycles: 56486271 heartbeat IPC: 1.50309 cumulative IPC: 1.48191 (Simulation time: 0 hr 6 min 42 sec) 
Heartbeat CPU 0 instructions: 100000002 cycles: 62921030 heartbeat IPC: 1.55406 cumulative IPC: 1.4896 (Simulation time: 0 hr 7 min 29 sec) 
Heartbeat CPU 0 instructions: 110000001 cycles: 69523796 heartbeat IPC: 1.51452 cumulative IPC: 1.49205 (Simulation time: 0 hr 8 min 16 sec) 
Finished CPU 0 instructions: 100000003 cycles: 67021828 cumulative IPC: 1.49205 (Simulation time: 0 hr 8 min 16 sec) 

ChampSim completed all CPUs

Region of Interest Statistics

CPU 0 cumulative IPC: 1.49205 instructions: 100000003 cycles: 67021828
cpu0_DTLB TOTAL     ACCESS:   12821381  HIT:   12785110  MISS:      36271
cpu0_DTLB LOAD      ACCESS:    9457799  HIT:    9431364  MISS:      26435
cpu0_DTLB RFO       ACCESS:    3363582  HIT:    3353746  MISS:       9836
cpu0_DTLB PREFETCH  ACCESS:          0  HIT:          0  MISS:          0
cpu0_DTLB WRITEBACK ACCESS:          0  HIT:          0  MISS:          0
cpu0_DTLB TRANSLATION ACCESS:          0  HIT:          0  MISS:          0
cpu0_DTLB PREFETCH  REQUESTED:          0  ISSUED:          0  USEFUL:          0  USELESS:          0
cpu0_DTLB AVERAGE MISS LATENCY: 13.6165 cycles
cpu0_ITLB TOTAL     ACCESS:    4145469  HIT:    4145438  MISS:         31
cpu0_ITLB LOAD      ACCESS:    4145469  HIT:    4145438  MISS:         31
cpu0_ITLB RFO       ACCESS:          0  HIT:          0  MISS:          0
cpu0_ITLB PREFETCH  ACCESS:          0  HIT:          0  MISS:          0
cpu0_ITLB WRITEBACK ACCESS:          0  HIT:          0  MISS:          0
cpu0_ITLB TRANSLATION ACCESS:          0  HIT:          0  MISS:          0
cpu0_ITLB PREFETCH  REQUESTED:          0  ISSUED:          0  USEFUL:          0  USELESS:          0
cpu0_ITLB AVERAGE MISS LATENCY: 209.355 cycles
cpu0_L1I TOTAL     ACCESS:    6343497  HIT:    6342381  MISS:       1116
cpu0_L1I LOAD      ACCESS:    6343497  HIT:    6342381  MISS:       1116
cpu0_L1I RFO       ACCESS:          0  HIT:          0  MISS:          0
cpu0_L1I PREFETCH  ACCESS:          0  HIT:          0  MISS:          0
cpu0_L1I WRITEBACK ACCESS:          0  HIT:          0  MISS:          0
cpu0_L1I TRANSLATION ACCESS:          0  HIT:          0  MISS:          0
cpu0_L1I PREFETCH  REQUESTED:          0  ISSUED:          0  USEFUL:          0  USELESS:          0
cpu0_L1I AVERAGE MISS LATENCY: 171.245 cycles
cpu0_STLB TOTAL     ACCESS:      36302  HIT:      35640  MISS:        662
cpu0_STLB LOAD      ACCESS:      26466  HIT:      26420  MISS:         46
cpu0_STLB RFO       ACCESS:       9836  HIT:       9220  MISS:        616
cpu0_STLB PREFETCH  ACCESS:          0  HIT:          0  MISS:          0
cpu0_STLB WRITEBACK ACCESS:          0  HIT:          0  MISS:          0
cpu0_STLB TRANSLATION ACCESS:          0  HIT:          0  MISS:          0
cpu0_STLB PREFETCH  REQUESTED:          0  ISSUED:          0  USEFUL:          0  USELESS:          0
cpu0_STLB AVERAGE MISS LATENCY: 262.077 cycles
cpu0_L1D TOTAL     ACCESS:   13842515  HIT:   12628182  MISS:    1214333
cpu0_L1D LOAD      ACCESS:    7751181  HIT:    6954225  MISS:     796956
cpu0_L1D RFO       ACCESS:    6090675  HIT:    5673311  MISS:     417364
cpu0_L1D PREFETCH  ACCESS:          0  HIT:          0  MISS:          0
cpu0_L1D WRITEBACK ACCESS:          0  HIT:          0  MISS:          0
cpu0_L1D TRANSLATION ACCESS:        659  HIT:        646  MISS:         13
cpu0_L1D PREFETCH  REQUESTED:          0  ISSUED:          0  USEFUL:          0  USELESS:          0
cpu0_L1D AVERAGE MISS LATENCY: 77.0276 cycles
cpu0_L2C TOTAL     ACCESS:    1652883  HIT:     826663  MISS:     826220
cpu0_L2C LOAD      ACCESS:     798072  HIT:     213764  MISS:     584308
cpu0_L2C RFO       ACCESS:     417364  HIT:     175494  MISS:     241870
cpu0_L2C PREFETCH  ACCESS:          0  HIT:          0  MISS:          0
cpu0_L2C WRITEBACK ACCESS:     437434  HIT:     437401  MISS:         33
cpu0_L2C TRANSLATION ACCESS:         13  HIT:          4  MISS:          9
cpu0_L2C PREFETCH  REQUESTED:          0  ISSUED:          0  USEFUL:          0  USELESS:          0
cpu0_L2C AVERAGE MISS LATENCY: 97.2182 cycles
LLC TOTAL     ACCESS:    1191055  HIT:     956457  MISS:     234598
LLC LOAD      ACCESS:     584248  HIT:     449485  MISS:     134763
LLC RFO       ACCESS:     241870  HIT:     186039  MISS:      55831
LLC PREFETCH  ACCESS:          0  HIT:          0  MISS:          0
LLC WRITEBACK ACCESS:     364928  HIT:     320926  MISS:      44002
LLC TRANSLATION ACCESS:          9  HIT:          7  MISS:          2
LLC PREFETCH  REQUESTED:          0  ISSUED:          0  USEFUL:          0  USELESS:          0
LLC AVERAGE MISS LATENCY: 268.401 cycles
OPTgen accesses: 13633
OPTgen hits: 10915
OPTgen hit rate: 80.0631



DRAM Statistics
 CHANNEL 0
 RQ ROW_BUFFER_HIT:      33720  ROW_BUFFER_MISS:     156565
 DBUS AVG_CONGESTED_CYCLE:    3.96559
 WQ ROW_BUFFER_HIT:      22011  ROW_BUFFER_MISS:     106599  FULL:       6968


CPU 0 Branch Prediction Accuracy: 95.8021% MPKI: 4.07385 Average ROB Occupancy at Mispredict: 71.5733
Branch type MPKI
BRANCH_DIRECT_JUMP: 0.00041
BRANCH_INDIRECT: 5e-05
BRANCH_CONDITIONAL: 4.07099
BRANCH_DIRECT_CALL: 0.00126
BRANCH_INDIRECT_CALL: 0
BRANCH_RETURN: 0.00114

