
*** ChampSim Multicore Out-of-Order Simulator ***

Warmup Instructions: 10000000
Simulation Instructions: 100000000
Number of CPUs: 1
Off-chip DRAM Size: 4 GiB Channels: 1 Width: 64-bit Data Rate: 3200 MT/s

VirtualMemory physical capacity: 8588881920 num_ppages: 2096895
VirtualMemory page size: 4096 log2_page_size: 12

CPU 0 runs /datasets/cs240c-wi22-a00-public/data/Assignment2/wrf_1212B.trace.xz
CPU 0 Bimodal branch predictor
Basic BTB sets: 1024 ways: 8 indirect buffer size: 4096 RAS size: 64
Initialize Hawkeye state
Heartbeat CPU 0 instructions: 10000004 cycles: 2552145 heartbeat IPC: 3.91827 cumulative IPC: 3.91827 (Simulation time: 0 hr 0 min 35 sec) 

Warmup complete CPU 0 instructions: 10000004 cycles: 2552145 (Simulation time: 0 hr 0 min 35 sec) 

Heartbeat CPU 0 instructions: 20000000 cycles: 9018758 heartbeat IPC: 1.5464 cumulative IPC: 1.5464 (Simulation time: 0 hr 1 min 30 sec) 
Heartbeat CPU 0 instructions: 30000002 cycles: 15456784 heartbeat IPC: 1.55327 cumulative IPC: 1.54983 (Simulation time: 0 hr 2 min 26 sec) 
Heartbeat CPU 0 instructions: 40000002 cycles: 21900202 heartbeat IPC: 1.55197 cumulative IPC: 1.55054 (Simulation time: 0 hr 3 min 21 sec) 
Heartbeat CPU 0 instructions: 50000003 cycles: 28354446 heartbeat IPC: 1.54937 cumulative IPC: 1.55025 (Simulation time: 0 hr 4 min 17 sec) 
Heartbeat CPU 0 instructions: 60000000 cycles: 34835614 heartbeat IPC: 1.54293 cumulative IPC: 1.54878 (Simulation time: 0 hr 5 min 12 sec) 
Heartbeat CPU 0 instructions: 70000002 cycles: 41481096 heartbeat IPC: 1.50478 cumulative IPC: 1.54127 (Simulation time: 0 hr 6 min 7 sec) 
Heartbeat CPU 0 instructions: 80000001 cycles: 48089503 heartbeat IPC: 1.51322 cumulative IPC: 1.5372 (Simulation time: 0 hr 7 min 2 sec) 
Heartbeat CPU 0 instructions: 90000000 cycles: 54585757 heartbeat IPC: 1.53935 cumulative IPC: 1.53747 (Simulation time: 0 hr 7 min 57 sec) 
Heartbeat CPU 0 instructions: 100000003 cycles: 61026476 heartbeat IPC: 1.55262 cumulative IPC: 1.53914 (Simulation time: 0 hr 8 min 52 sec) 
Heartbeat CPU 0 instructions: 110000001 cycles: 67421451 heartbeat IPC: 1.56373 cumulative IPC: 1.54156 (Simulation time: 0 hr 9 min 48 sec) 
Finished CPU 0 instructions: 100000002 cycles: 64869307 cumulative IPC: 1.54156 (Simulation time: 0 hr 9 min 48 sec) 

ChampSim completed all CPUs

Region of Interest Statistics

CPU 0 cumulative IPC: 1.54156 instructions: 100000002 cycles: 64869307
cpu0_DTLB TOTAL     ACCESS:   18869638  HIT:   18629078  MISS:     240560
cpu0_DTLB LOAD      ACCESS:   12070838  HIT:   11914317  MISS:     156521
cpu0_DTLB RFO       ACCESS:    6798800  HIT:    6714761  MISS:      84039
cpu0_DTLB PREFETCH  ACCESS:          0  HIT:          0  MISS:          0
cpu0_DTLB WRITEBACK ACCESS:          0  HIT:          0  MISS:          0
cpu0_DTLB TRANSLATION ACCESS:          0  HIT:          0  MISS:          0
cpu0_DTLB PREFETCH  REQUESTED:          0  ISSUED:          0  USEFUL:          0  USELESS:          0
cpu0_DTLB AVERAGE MISS LATENCY: 14.8139 cycles
cpu0_ITLB TOTAL     ACCESS:    5651241  HIT:    5651241  MISS:          0
cpu0_ITLB LOAD      ACCESS:    5651241  HIT:    5651241  MISS:          0
cpu0_ITLB RFO       ACCESS:          0  HIT:          0  MISS:          0
cpu0_ITLB PREFETCH  ACCESS:          0  HIT:          0  MISS:          0
cpu0_ITLB WRITEBACK ACCESS:          0  HIT:          0  MISS:          0
cpu0_ITLB TRANSLATION ACCESS:          0  HIT:          0  MISS:          0
cpu0_ITLB PREFETCH  REQUESTED:          0  ISSUED:          0  USEFUL:          0  USELESS:          0
cpu0_ITLB AVERAGE MISS LATENCY: -nan cycles
cpu0_L1I TOTAL     ACCESS:    9013444  HIT:    8969635  MISS:      43809
cpu0_L1I LOAD      ACCESS:    9013444  HIT:    8969635  MISS:      43809
cpu0_L1I RFO       ACCESS:          0  HIT:          0  MISS:          0
cpu0_L1I PREFETCH  ACCESS:          0  HIT:          0  MISS:          0
cpu0_L1I WRITEBACK ACCESS:          0  HIT:          0  MISS:          0
cpu0_L1I TRANSLATION ACCESS:          0  HIT:          0  MISS:          0
cpu0_L1I PREFETCH  REQUESTED:          0  ISSUED:          0  USEFUL:          0  USELESS:          0
cpu0_L1I AVERAGE MISS LATENCY: 11.774 cycles
cpu0_STLB TOTAL     ACCESS:     240560  HIT:     239297  MISS:       1263
cpu0_STLB LOAD      ACCESS:     156521  HIT:     155272  MISS:       1249
cpu0_STLB RFO       ACCESS:      84039  HIT:      84025  MISS:         14
cpu0_STLB PREFETCH  ACCESS:          0  HIT:          0  MISS:          0
cpu0_STLB WRITEBACK ACCESS:          0  HIT:          0  MISS:          0
cpu0_STLB TRANSLATION ACCESS:          0  HIT:          0  MISS:          0
cpu0_STLB PREFETCH  REQUESTED:          0  ISSUED:          0  USEFUL:          0  USELESS:          0
cpu0_STLB AVERAGE MISS LATENCY: 1088.17 cycles
cpu0_L1D TOTAL     ACCESS:   29575747  HIT:   29172141  MISS:     403606
cpu0_L1D LOAD      ACCESS:   14322443  HIT:   13997796  MISS:     324647
cpu0_L1D RFO       ACCESS:   15252326  HIT:   15173593  MISS:      78733
cpu0_L1D PREFETCH  ACCESS:          0  HIT:          0  MISS:          0
cpu0_L1D WRITEBACK ACCESS:          0  HIT:          0  MISS:          0
cpu0_L1D TRANSLATION ACCESS:        978  HIT:        752  MISS:        226
cpu0_L1D PREFETCH  REQUESTED:          0  ISSUED:          0  USEFUL:          0  USELESS:          0
cpu0_L1D AVERAGE MISS LATENCY: 118.006 cycles
cpu0_L2C TOTAL     ACCESS:     589993  HIT:     511526  MISS:      78467
cpu0_L2C LOAD      ACCESS:     368456  HIT:     291151  MISS:      77305
cpu0_L2C RFO       ACCESS:      77262  HIT:      76348  MISS:        914
cpu0_L2C PREFETCH  ACCESS:          0  HIT:          0  MISS:          0
cpu0_L2C WRITEBACK ACCESS:     144049  HIT:     143819  MISS:        230
cpu0_L2C TRANSLATION ACCESS:        226  HIT:        208  MISS:         18
cpu0_L2C PREFETCH  REQUESTED:          0  ISSUED:          0  USEFUL:          0  USELESS:          0
cpu0_L2C AVERAGE MISS LATENCY: 550.274 cycles
LLC TOTAL     ACCESS:     115101  HIT:      18762  MISS:      96339
LLC LOAD      ACCESS:      77305  HIT:        287  MISS:      77018
LLC RFO       ACCESS:        914  HIT:          9  MISS:        905
LLC PREFETCH  ACCESS:          0  HIT:          0  MISS:          0
LLC WRITEBACK ACCESS:      36864  HIT:      18457  MISS:      18407
LLC TRANSLATION ACCESS:         18  HIT:          9  MISS:          9
LLC PREFETCH  REQUESTED:          0  ISSUED:          0  USEFUL:          0  USELESS:          0
LLC AVERAGE MISS LATENCY: 431.138 cycles
OPTgen accesses: 1386
OPTgen hits: 18
OPTgen hit rate: 1.2987



DRAM Statistics
 CHANNEL 0
 RQ ROW_BUFFER_HIT:       2531  ROW_BUFFER_MISS:      75401
 DBUS AVG_CONGESTED_CYCLE:    3.96231
 WQ ROW_BUFFER_HIT:        384  ROW_BUFFER_MISS:      23025  FULL:          0


CPU 0 Branch Prediction Accuracy: 97.2223% MPKI: 4.86341 Average ROB Occupancy at Mispredict: 61.3851
Branch type MPKI
BRANCH_DIRECT_JUMP: 0.00019
BRANCH_INDIRECT: 0
BRANCH_CONDITIONAL: 4.86284
BRANCH_DIRECT_CALL: 0.00021
BRANCH_INDIRECT_CALL: 0
BRANCH_RETURN: 0.00017

