
*** ChampSim Multicore Out-of-Order Simulator ***

Warmup Instructions: 10000000
Simulation Instructions: 100000000
Number of CPUs: 1
Off-chip DRAM Size: 4 GiB Channels: 1 Width: 64-bit Data Rate: 3200 MT/s

VirtualMemory physical capacity: 8588881920 num_ppages: 2096895
VirtualMemory page size: 4096 log2_page_size: 12

CPU 0 runs /datasets/cs240c-wi22-a00-public/data/Assignment2/wrf_1228B.trace.xz
CPU 0 Bimodal branch predictor
Basic BTB sets: 1024 ways: 8 indirect buffer size: 4096 RAS size: 64
Initialize Hawkeye state
Heartbeat CPU 0 instructions: 10000001 cycles: 3904505 heartbeat IPC: 2.56114 cumulative IPC: 2.56114 (Simulation time: 0 hr 1 min 1 sec) 

Warmup complete CPU 0 instructions: 10000001 cycles: 3904505 (Simulation time: 0 hr 1 min 1 sec) 

Heartbeat CPU 0 instructions: 20000001 cycles: 12338326 heartbeat IPC: 1.1857 cumulative IPC: 1.1857 (Simulation time: 0 hr 2 min 22 sec) 
Heartbeat CPU 0 instructions: 30000004 cycles: 24617538 heartbeat IPC: 0.814385 cumulative IPC: 0.965576 (Simulation time: 0 hr 4 min 7 sec) 
Heartbeat CPU 0 instructions: 40000000 cycles: 37809950 heartbeat IPC: 0.758011 cumulative IPC: 0.884814 (Simulation time: 0 hr 6 min 0 sec) 
Heartbeat CPU 0 instructions: 50000001 cycles: 46799449 heartbeat IPC: 1.11241 cumulative IPC: 0.932511 (Simulation time: 0 hr 7 min 23 sec) 
Heartbeat CPU 0 instructions: 60000003 cycles: 57031540 heartbeat IPC: 0.977318 cumulative IPC: 0.94114 (Simulation time: 0 hr 8 min 55 sec) 
Heartbeat CPU 0 instructions: 70000001 cycles: 68331885 heartbeat IPC: 0.884929 cumulative IPC: 0.931281 (Simulation time: 0 hr 10 min 23 sec) 
Heartbeat CPU 0 instructions: 80000004 cycles: 78041878 heartbeat IPC: 1.02987 cumulative IPC: 0.944193 (Simulation time: 0 hr 11 min 32 sec) 
Heartbeat CPU 0 instructions: 90000001 cycles: 87726873 heartbeat IPC: 1.03252 cumulative IPC: 0.954399 (Simulation time: 0 hr 12 min 41 sec) 
Heartbeat CPU 0 instructions: 100000002 cycles: 97405213 heartbeat IPC: 1.03324 cumulative IPC: 0.96256 (Simulation time: 0 hr 13 min 51 sec) 
Heartbeat CPU 0 instructions: 110000000 cycles: 107075376 heartbeat IPC: 1.03411 cumulative IPC: 0.969266 (Simulation time: 0 hr 15 min 1 sec) 
Finished CPU 0 instructions: 100000004 cycles: 103170872 cumulative IPC: 0.969266 (Simulation time: 0 hr 15 min 1 sec) 

ChampSim completed all CPUs

Region of Interest Statistics

CPU 0 cumulative IPC: 0.969266 instructions: 100000004 cycles: 103170872
cpu0_DTLB TOTAL     ACCESS:   19664463  HIT:   19568225  MISS:      96238
cpu0_DTLB LOAD      ACCESS:   17653354  HIT:   17571424  MISS:      81930
cpu0_DTLB RFO       ACCESS:    2011109  HIT:    1996801  MISS:      14308
cpu0_DTLB PREFETCH  ACCESS:          0  HIT:          0  MISS:          0
cpu0_DTLB WRITEBACK ACCESS:          0  HIT:          0  MISS:          0
cpu0_DTLB TRANSLATION ACCESS:          0  HIT:          0  MISS:          0
cpu0_DTLB PREFETCH  REQUESTED:          0  ISSUED:          0  USEFUL:          0  USELESS:          0
cpu0_DTLB AVERAGE MISS LATENCY: 20.0409 cycles
cpu0_ITLB TOTAL     ACCESS:    4202754  HIT:    4202742  MISS:         12
cpu0_ITLB LOAD      ACCESS:    4202754  HIT:    4202742  MISS:         12
cpu0_ITLB RFO       ACCESS:          0  HIT:          0  MISS:          0
cpu0_ITLB PREFETCH  ACCESS:          0  HIT:          0  MISS:          0
cpu0_ITLB WRITEBACK ACCESS:          0  HIT:          0  MISS:          0
cpu0_ITLB TRANSLATION ACCESS:          0  HIT:          0  MISS:          0
cpu0_ITLB PREFETCH  REQUESTED:          0  ISSUED:          0  USEFUL:          0  USELESS:          0
cpu0_ITLB AVERAGE MISS LATENCY: 246.833 cycles
cpu0_L1I TOTAL     ACCESS:    6672262  HIT:    6671514  MISS:        748
cpu0_L1I LOAD      ACCESS:    6672262  HIT:    6671514  MISS:        748
cpu0_L1I RFO       ACCESS:          0  HIT:          0  MISS:          0
cpu0_L1I PREFETCH  ACCESS:          0  HIT:          0  MISS:          0
cpu0_L1I WRITEBACK ACCESS:          0  HIT:          0  MISS:          0
cpu0_L1I TRANSLATION ACCESS:          0  HIT:          0  MISS:          0
cpu0_L1I PREFETCH  REQUESTED:          0  ISSUED:          0  USEFUL:          0  USELESS:          0
cpu0_L1I AVERAGE MISS LATENCY: 363.079 cycles
cpu0_STLB TOTAL     ACCESS:      96250  HIT:      86696  MISS:       9554
cpu0_STLB LOAD      ACCESS:      81942  HIT:      75034  MISS:       6908
cpu0_STLB RFO       ACCESS:      14308  HIT:      11662  MISS:       2646
cpu0_STLB PREFETCH  ACCESS:          0  HIT:          0  MISS:          0
cpu0_STLB WRITEBACK ACCESS:          0  HIT:          0  MISS:          0
cpu0_STLB TRANSLATION ACCESS:          0  HIT:          0  MISS:          0
cpu0_STLB PREFETCH  REQUESTED:          0  ISSUED:          0  USEFUL:          0  USELESS:          0
cpu0_STLB AVERAGE MISS LATENCY: 111.495 cycles
cpu0_L1D TOTAL     ACCESS:   18883429  HIT:   17525029  MISS:    1358400
cpu0_L1D LOAD      ACCESS:   14829927  HIT:   13730881  MISS:    1099046
cpu0_L1D RFO       ACCESS:    4043959  HIT:    3785391  MISS:     258568
cpu0_L1D PREFETCH  ACCESS:          0  HIT:          0  MISS:          0
cpu0_L1D WRITEBACK ACCESS:          0  HIT:          0  MISS:          0
cpu0_L1D TRANSLATION ACCESS:       9543  HIT:       8757  MISS:        786
cpu0_L1D PREFETCH  REQUESTED:          0  ISSUED:          0  USEFUL:          0  USELESS:          0
cpu0_L1D AVERAGE MISS LATENCY: 213.899 cycles
cpu0_L2C TOTAL     ACCESS:    1836354  HIT:     802917  MISS:    1033437
cpu0_L2C LOAD      ACCESS:    1099774  HIT:     287153  MISS:     812621
cpu0_L2C RFO       ACCESS:     258564  HIT:      39545  MISS:     219019
cpu0_L2C PREFETCH  ACCESS:          0  HIT:          0  MISS:          0
cpu0_L2C WRITEBACK ACCESS:     477230  HIT:     475546  MISS:       1684
cpu0_L2C TRANSLATION ACCESS:        786  HIT:        673  MISS:        113
cpu0_L2C PREFETCH  REQUESTED:          0  ISSUED:          0  USEFUL:          0  USELESS:          0
cpu0_L2C AVERAGE MISS LATENCY: 266.933 cycles
LLC TOTAL     ACCESS:    1463803  HIT:     397371  MISS:    1066432
LLC LOAD      ACCESS:     812621  HIT:     148995  MISS:     663626
LLC RFO       ACCESS:     219019  HIT:      45995  MISS:     173024
LLC PREFETCH  ACCESS:          0  HIT:          0  MISS:          0
LLC WRITEBACK ACCESS:     432050  HIT:     202341  MISS:     229709
LLC TRANSLATION ACCESS:        113  HIT:         40  MISS:         73
LLC PREFETCH  REQUESTED:          0  ISSUED:          0  USEFUL:          0  USELESS:          0
LLC AVERAGE MISS LATENCY: 238.355 cycles
OPTgen accesses: 20219
OPTgen hits: 5851
OPTgen hit rate: 28.9381



DRAM Statistics
 CHANNEL 0
 RQ ROW_BUFFER_HIT:      89945  ROW_BUFFER_MISS:     746461
 DBUS AVG_CONGESTED_CYCLE:    3.93047
 WQ ROW_BUFFER_HIT:      31219  ROW_BUFFER_MISS:     288612  FULL:        782


CPU 0 Branch Prediction Accuracy: 97.4481% MPKI: 2.04611 Average ROB Occupancy at Mispredict: 260.725
Branch type MPKI
BRANCH_DIRECT_JUMP: 0.00028
BRANCH_INDIRECT: 0
BRANCH_CONDITIONAL: 2.0456
BRANCH_DIRECT_CALL: 0.00011
BRANCH_INDIRECT_CALL: 0
BRANCH_RETURN: 0.00012

