
*** ChampSim Multicore Out-of-Order Simulator ***

Warmup Instructions: 10000000
Simulation Instructions: 100000000
Number of CPUs: 1
Off-chip DRAM Size: 4 GiB Channels: 1 Width: 64-bit Data Rate: 3200 MT/s

VirtualMemory physical capacity: 8588881920 num_ppages: 2096895
VirtualMemory page size: 4096 log2_page_size: 12

CPU 0 runs /datasets/cs240c-wi22-a00-public/data/Assignment2/zeusmp_100B.trace.xz
CPU 0 Bimodal branch predictor
Basic BTB sets: 1024 ways: 8 indirect buffer size: 4096 RAS size: 64
Initialize Hawkeye state
Heartbeat CPU 0 instructions: 10000000 cycles: 2533557 heartbeat IPC: 3.94702 cumulative IPC: 3.94702 (Simulation time: 0 hr 0 min 29 sec) 

Warmup complete CPU 0 instructions: 10000004 cycles: 2533558 (Simulation time: 0 hr 0 min 29 sec) 

Heartbeat CPU 0 instructions: 20000003 cycles: 8010324 heartbeat IPC: 1.8259 cumulative IPC: 1.82589 (Simulation time: 0 hr 1 min 25 sec) 
Heartbeat CPU 0 instructions: 30000000 cycles: 13927783 heartbeat IPC: 1.68991 cumulative IPC: 1.75527 (Simulation time: 0 hr 2 min 24 sec) 
Heartbeat CPU 0 instructions: 40000004 cycles: 19843361 heartbeat IPC: 1.69045 cumulative IPC: 1.73312 (Simulation time: 0 hr 3 min 24 sec) 
Heartbeat CPU 0 instructions: 50000001 cycles: 25730831 heartbeat IPC: 1.69852 cumulative IPC: 1.72434 (Simulation time: 0 hr 4 min 23 sec) 
Heartbeat CPU 0 instructions: 60000004 cycles: 31648251 heartbeat IPC: 1.68993 cumulative IPC: 1.71735 (Simulation time: 0 hr 5 min 23 sec) 
Heartbeat CPU 0 instructions: 70000001 cycles: 37529963 heartbeat IPC: 1.70018 cumulative IPC: 1.71446 (Simulation time: 0 hr 6 min 21 sec) 
Heartbeat CPU 0 instructions: 80000001 cycles: 43449516 heartbeat IPC: 1.68932 cumulative IPC: 1.71082 (Simulation time: 0 hr 7 min 20 sec) 
Heartbeat CPU 0 instructions: 90000000 cycles: 49367098 heartbeat IPC: 1.68988 cumulative IPC: 1.70818 (Simulation time: 0 hr 8 min 19 sec) 
Heartbeat CPU 0 instructions: 100000000 cycles: 55260745 heartbeat IPC: 1.69674 cumulative IPC: 1.7069 (Simulation time: 0 hr 9 min 18 sec) 
Heartbeat CPU 0 instructions: 110000003 cycles: 61179565 heartbeat IPC: 1.68953 cumulative IPC: 1.70515 (Simulation time: 0 hr 10 min 19 sec) 
Finished CPU 0 instructions: 100000004 cycles: 58646008 cumulative IPC: 1.70515 (Simulation time: 0 hr 10 min 19 sec) 

ChampSim completed all CPUs

Region of Interest Statistics

CPU 0 cumulative IPC: 1.70515 instructions: 100000004 cycles: 58646008
cpu0_DTLB TOTAL     ACCESS:   16444984  HIT:   12280539  MISS:    4164445
cpu0_DTLB LOAD      ACCESS:   11966298  HIT:    9308957  MISS:    2657341
cpu0_DTLB RFO       ACCESS:    4478686  HIT:    2971582  MISS:    1507104
cpu0_DTLB PREFETCH  ACCESS:          0  HIT:          0  MISS:          0
cpu0_DTLB WRITEBACK ACCESS:          0  HIT:          0  MISS:          0
cpu0_DTLB TRANSLATION ACCESS:          0  HIT:          0  MISS:          0
cpu0_DTLB PREFETCH  REQUESTED:          0  ISSUED:          0  USEFUL:          0  USELESS:          0
cpu0_DTLB AVERAGE MISS LATENCY: 10.4067 cycles
cpu0_ITLB TOTAL     ACCESS:    2227418  HIT:    2227417  MISS:          1
cpu0_ITLB LOAD      ACCESS:    2227418  HIT:    2227417  MISS:          1
cpu0_ITLB RFO       ACCESS:          0  HIT:          0  MISS:          0
cpu0_ITLB PREFETCH  ACCESS:          0  HIT:          0  MISS:          0
cpu0_ITLB WRITEBACK ACCESS:          0  HIT:          0  MISS:          0
cpu0_ITLB TRANSLATION ACCESS:          0  HIT:          0  MISS:          0
cpu0_ITLB PREFETCH  REQUESTED:          0  ISSUED:          0  USEFUL:          0  USELESS:          0
cpu0_ITLB AVERAGE MISS LATENCY: 249 cycles
cpu0_L1I TOTAL     ACCESS:    3117555  HIT:    3117504  MISS:         51
cpu0_L1I LOAD      ACCESS:    3117555  HIT:    3117504  MISS:         51
cpu0_L1I RFO       ACCESS:          0  HIT:          0  MISS:          0
cpu0_L1I PREFETCH  ACCESS:          0  HIT:          0  MISS:          0
cpu0_L1I WRITEBACK ACCESS:          0  HIT:          0  MISS:          0
cpu0_L1I TRANSLATION ACCESS:          0  HIT:          0  MISS:          0
cpu0_L1I PREFETCH  REQUESTED:          0  ISSUED:          0  USEFUL:          0  USELESS:          0
cpu0_L1I AVERAGE MISS LATENCY: 303.843 cycles
cpu0_STLB TOTAL     ACCESS:    4164446  HIT:    4156007  MISS:       8439
cpu0_STLB LOAD      ACCESS:    2657342  HIT:    2652179  MISS:       5163
cpu0_STLB RFO       ACCESS:    1507104  HIT:    1503828  MISS:       3276
cpu0_STLB PREFETCH  ACCESS:          0  HIT:          0  MISS:          0
cpu0_STLB WRITEBACK ACCESS:          0  HIT:          0  MISS:          0
cpu0_STLB TRANSLATION ACCESS:          0  HIT:          0  MISS:          0
cpu0_STLB PREFETCH  REQUESTED:          0  ISSUED:          0  USEFUL:          0  USELESS:          0
cpu0_STLB AVERAGE MISS LATENCY: 557.647 cycles
cpu0_L1D TOTAL     ACCESS:   19021367  HIT:   13986467  MISS:    5034900
cpu0_L1D LOAD      ACCESS:   12126100  HIT:    8891068  MISS:    3235032
cpu0_L1D RFO       ACCESS:    6886927  HIT:    5094756  MISS:    1792171
cpu0_L1D PREFETCH  ACCESS:          0  HIT:          0  MISS:          0
cpu0_L1D WRITEBACK ACCESS:          0  HIT:          0  MISS:          0
cpu0_L1D TRANSLATION ACCESS:       8340  HIT:        643  MISS:       7697
cpu0_L1D PREFETCH  REQUESTED:          0  ISSUED:          0  USEFUL:          0  USELESS:          0
cpu0_L1D AVERAGE MISS LATENCY: 86.3753 cycles
cpu0_L2C TOTAL     ACCESS:    6855621  HIT:    6268134  MISS:     587487
cpu0_L2C LOAD      ACCESS:    3234806  HIT:    2840875  MISS:     393931
cpu0_L2C RFO       ACCESS:    1790654  HIT:    1597392  MISS:     193262
cpu0_L2C PREFETCH  ACCESS:          0  HIT:          0  MISS:          0
cpu0_L2C WRITEBACK ACCESS:    1822464  HIT:    1822177  MISS:        287
cpu0_L2C TRANSLATION ACCESS:       7697  HIT:       7690  MISS:          7
cpu0_L2C PREFETCH  REQUESTED:          0  ISSUED:          0  USEFUL:          0  USELESS:          0
cpu0_L2C AVERAGE MISS LATENCY: 645.121 cycles
LLC TOTAL     ACCESS:     780537  HIT:     104300  MISS:     676237
LLC LOAD      ACCESS:     393931  HIT:      88517  MISS:     305414
LLC RFO       ACCESS:     193262  HIT:          0  MISS:     193262
LLC PREFETCH  ACCESS:          0  HIT:          0  MISS:          0
LLC WRITEBACK ACCESS:     193337  HIT:      15780  MISS:     177557
LLC TRANSLATION ACCESS:          7  HIT:          3  MISS:          4
LLC PREFETCH  REQUESTED:          0  ISSUED:          0  USEFUL:          0  USELESS:          0
LLC AVERAGE MISS LATENCY: 542.22 cycles
OPTgen accesses: 9771
OPTgen hits: 1564
OPTgen hit rate: 16.0065



DRAM Statistics
 CHANNEL 0
 RQ ROW_BUFFER_HIT:        124  ROW_BUFFER_MISS:     498556
 DBUS AVG_CONGESTED_CYCLE:    3.99928
 WQ ROW_BUFFER_HIT:        419  ROW_BUFFER_MISS:     197670  FULL:          0


CPU 0 Branch Prediction Accuracy: 99.0158% MPKI: 0.52371 Average ROB Occupancy at Mispredict: 235.8
Branch type MPKI
BRANCH_DIRECT_JUMP: 1e-05
BRANCH_INDIRECT: 0
BRANCH_CONDITIONAL: 0.5237
BRANCH_DIRECT_CALL: 0
BRANCH_INDIRECT_CALL: 0
BRANCH_RETURN: 0

