
*** ChampSim Multicore Out-of-Order Simulator ***

Warmup Instructions: 10000000
Simulation Instructions: 100000000
Number of CPUs: 1
Off-chip DRAM Size: 4 GiB Channels: 1 Width: 64-bit Data Rate: 3200 MT/s

VirtualMemory physical capacity: 8588881920 num_ppages: 2096895
VirtualMemory page size: 4096 log2_page_size: 12

CPU 0 runs /datasets/cs240c-wi22-a00-public/data/Assignment2/xalancbmk_748B.trace.xz
CPU 0 Bimodal branch predictor
Basic BTB sets: 1024 ways: 8 indirect buffer size: 4096 RAS size: 64
Initialize Hawkeye state
Heartbeat CPU 0 instructions: 10000002 cycles: 2655103 heartbeat IPC: 3.76633 cumulative IPC: 3.76633 (Simulation time: 0 hr 0 min 38 sec) 

Warmup complete CPU 0 instructions: 10000002 cycles: 2655103 (Simulation time: 0 hr 0 min 38 sec) 

Heartbeat CPU 0 instructions: 20000001 cycles: 11807227 heartbeat IPC: 1.09264 cumulative IPC: 1.09264 (Simulation time: 0 hr 1 min 23 sec) 
Heartbeat CPU 0 instructions: 30000002 cycles: 20734430 heartbeat IPC: 1.12017 cumulative IPC: 1.10624 (Simulation time: 0 hr 2 min 7 sec) 
Heartbeat CPU 0 instructions: 40000002 cycles: 30105696 heartbeat IPC: 1.06709 cumulative IPC: 1.09287 (Simulation time: 0 hr 2 min 53 sec) 
Heartbeat CPU 0 instructions: 50000001 cycles: 38616847 heartbeat IPC: 1.17493 cumulative IPC: 1.11229 (Simulation time: 0 hr 3 min 39 sec) 
Heartbeat CPU 0 instructions: 60000003 cycles: 45780552 heartbeat IPC: 1.39593 cumulative IPC: 1.15941 (Simulation time: 0 hr 4 min 27 sec) 
Heartbeat CPU 0 instructions: 70000000 cycles: 51582330 heartbeat IPC: 1.72361 cumulative IPC: 1.22631 (Simulation time: 0 hr 5 min 18 sec) 
Heartbeat CPU 0 instructions: 80000003 cycles: 61912529 heartbeat IPC: 0.968036 cumulative IPC: 1.18129 (Simulation time: 0 hr 6 min 5 sec) 
Heartbeat CPU 0 instructions: 90000003 cycles: 70507249 heartbeat IPC: 1.16351 cumulative IPC: 1.17903 (Simulation time: 0 hr 6 min 50 sec) 
Heartbeat CPU 0 instructions: 100000003 cycles: 78462864 heartbeat IPC: 1.25697 cumulative IPC: 1.18721 (Simulation time: 0 hr 7 min 37 sec) 
Heartbeat CPU 0 instructions: 110000001 cycles: 85718035 heartbeat IPC: 1.37833 cumulative IPC: 1.20391 (Simulation time: 0 hr 8 min 27 sec) 
Finished CPU 0 instructions: 100000004 cycles: 83062933 cumulative IPC: 1.20391 (Simulation time: 0 hr 8 min 27 sec) 

ChampSim completed all CPUs

Region of Interest Statistics

CPU 0 cumulative IPC: 1.20391 instructions: 100000004 cycles: 83062933
cpu0_DTLB TOTAL     ACCESS:   20938677  HIT:   19923423  MISS:    1015254
cpu0_DTLB LOAD      ACCESS:   15325863  HIT:   14391051  MISS:     934812
cpu0_DTLB RFO       ACCESS:    5612814  HIT:    5532372  MISS:      80442
cpu0_DTLB PREFETCH  ACCESS:          0  HIT:          0  MISS:          0
cpu0_DTLB WRITEBACK ACCESS:          0  HIT:          0  MISS:          0
cpu0_DTLB TRANSLATION ACCESS:          0  HIT:          0  MISS:          0
cpu0_DTLB PREFETCH  REQUESTED:          0  ISSUED:          0  USEFUL:          0  USELESS:          0
cpu0_DTLB AVERAGE MISS LATENCY: 12.6499 cycles
cpu0_ITLB TOTAL     ACCESS:    8533633  HIT:    8418598  MISS:     115035
cpu0_ITLB LOAD      ACCESS:    8533633  HIT:    8418598  MISS:     115035
cpu0_ITLB RFO       ACCESS:          0  HIT:          0  MISS:          0
cpu0_ITLB PREFETCH  ACCESS:          0  HIT:          0  MISS:          0
cpu0_ITLB WRITEBACK ACCESS:          0  HIT:          0  MISS:          0
cpu0_ITLB TRANSLATION ACCESS:          0  HIT:          0  MISS:          0
cpu0_ITLB PREFETCH  REQUESTED:          0  ISSUED:          0  USEFUL:          0  USELESS:          0
cpu0_ITLB AVERAGE MISS LATENCY: 9.0832 cycles
cpu0_L1I TOTAL     ACCESS:    5572252  HIT:    5474241  MISS:      98011
cpu0_L1I LOAD      ACCESS:    5572252  HIT:    5474241  MISS:      98011
cpu0_L1I RFO       ACCESS:          0  HIT:          0  MISS:          0
cpu0_L1I PREFETCH  ACCESS:          0  HIT:          0  MISS:          0
cpu0_L1I WRITEBACK ACCESS:          0  HIT:          0  MISS:          0
cpu0_L1I TRANSLATION ACCESS:          0  HIT:          0  MISS:          0
cpu0_L1I PREFETCH  REQUESTED:          0  ISSUED:          0  USEFUL:          0  USELESS:          0
cpu0_L1I AVERAGE MISS LATENCY: 15.0466 cycles
cpu0_STLB TOTAL     ACCESS:    1130289  HIT:    1056277  MISS:      74012
cpu0_STLB LOAD      ACCESS:    1049847  HIT:    1003760  MISS:      46087
cpu0_STLB RFO       ACCESS:      80442  HIT:      52517  MISS:      27925
cpu0_STLB PREFETCH  ACCESS:          0  HIT:          0  MISS:          0
cpu0_STLB WRITEBACK ACCESS:          0  HIT:          0  MISS:          0
cpu0_STLB TRANSLATION ACCESS:          0  HIT:          0  MISS:          0
cpu0_STLB PREFETCH  REQUESTED:          0  ISSUED:          0  USEFUL:          0  USELESS:          0
cpu0_STLB AVERAGE MISS LATENCY: 50.0408 cycles
cpu0_L1D TOTAL     ACCESS:   22870441  HIT:   21395842  MISS:    1474599
cpu0_L1D LOAD      ACCESS:   13616529  HIT:   12403151  MISS:    1213378
cpu0_L1D RFO       ACCESS:    9187030  HIT:    8940787  MISS:     246243
cpu0_L1D PREFETCH  ACCESS:          0  HIT:          0  MISS:          0
cpu0_L1D WRITEBACK ACCESS:          0  HIT:          0  MISS:          0
cpu0_L1D TRANSLATION ACCESS:      66882  HIT:      51904  MISS:      14978
cpu0_L1D PREFETCH  REQUESTED:          0  ISSUED:          0  USEFUL:          0  USELESS:          0
cpu0_L1D AVERAGE MISS LATENCY: 45.8793 cycles
cpu0_L2C TOTAL     ACCESS:    1931895  HIT:    1588116  MISS:     343779
cpu0_L2C LOAD      ACCESS:    1311349  HIT:    1191294  MISS:     120055
cpu0_L2C RFO       ACCESS:     246230  HIT:      23093  MISS:     223137
cpu0_L2C PREFETCH  ACCESS:          0  HIT:          0  MISS:          0
cpu0_L2C WRITEBACK ACCESS:     359338  HIT:     358851  MISS:        487
cpu0_L2C TRANSLATION ACCESS:      14978  HIT:      14878  MISS:        100
cpu0_L2C PREFETCH  REQUESTED:          0  ISSUED:          0  USEFUL:          0  USELESS:          0
cpu0_L2C AVERAGE MISS LATENCY: 150.184 cycles
LLC TOTAL     ACCESS:     632514  HIT:     231694  MISS:     400820
LLC LOAD      ACCESS:     120055  HIT:      69569  MISS:      50486
LLC RFO       ACCESS:     223137  HIT:      34011  MISS:     189126
LLC PREFETCH  ACCESS:          0  HIT:          0  MISS:          0
LLC WRITEBACK ACCESS:     289222  HIT:     128051  MISS:     161171
LLC TRANSLATION ACCESS:        100  HIT:         63  MISS:         37
LLC PREFETCH  REQUESTED:          0  ISSUED:          0  USEFUL:          0  USELESS:          0
LLC AVERAGE MISS LATENCY: 110.825 cycles
OPTgen accesses: 6078
OPTgen hits: 2182
OPTgen hit rate: 35.9



DRAM Statistics
 CHANNEL 0
 RQ ROW_BUFFER_HIT:      98394  ROW_BUFFER_MISS:     141251
 DBUS AVG_CONGESTED_CYCLE:    3.94592
 WQ ROW_BUFFER_HIT:      17814  ROW_BUFFER_MISS:     196187  FULL:          0


CPU 0 Branch Prediction Accuracy: 96.4988% MPKI: 10.3974 Average ROB Occupancy at Mispredict: 40.2576
Branch type MPKI
BRANCH_DIRECT_JUMP: 0.0002
BRANCH_INDIRECT: 0.35495
BRANCH_CONDITIONAL: 7.96079
BRANCH_DIRECT_CALL: 9e-05
BRANCH_INDIRECT_CALL: 0.45393
BRANCH_RETURN: 1.62746

