
*** ChampSim Multicore Out-of-Order Simulator ***

Warmup Instructions: 10000000
Simulation Instructions: 100000000
Number of CPUs: 1
Off-chip DRAM Size: 4 GiB Channels: 1 Width: 64-bit Data Rate: 3200 MT/s

VirtualMemory physical capacity: 8588881920 num_ppages: 2096895
VirtualMemory page size: 4096 log2_page_size: 12

CPU 0 runs /datasets/cs240c-wi22-a00-public/data/Assignment2/lbm_564B.trace.xz
CPU 0 Bimodal branch predictor
Basic BTB sets: 1024 ways: 8 indirect buffer size: 4096 RAS size: 64
Initialize Hawkeye state
Heartbeat CPU 0 instructions: 10000000 cycles: 2507075 heartbeat IPC: 3.98871 cumulative IPC: 3.98871 (Simulation time: 0 hr 0 min 29 sec) 

Warmup complete CPU 0 instructions: 10000004 cycles: 2507076 (Simulation time: 0 hr 0 min 29 sec) 

Heartbeat CPU 0 instructions: 20000004 cycles: 32423669 heartbeat IPC: 0.334263 cumulative IPC: 0.334263 (Simulation time: 0 hr 2 min 47 sec) 
Heartbeat CPU 0 instructions: 30000000 cycles: 87807350 heartbeat IPC: 0.180559 cumulative IPC: 0.234466 (Simulation time: 0 hr 7 min 42 sec) 
Heartbeat CPU 0 instructions: 40000000 cycles: 116501356 heartbeat IPC: 0.348505 cumulative IPC: 0.263171 (Simulation time: 0 hr 9 min 56 sec) 
Heartbeat CPU 0 instructions: 50000000 cycles: 146980271 heartbeat IPC: 0.328096 cumulative IPC: 0.276868 (Simulation time: 0 hr 12 min 13 sec) 
Heartbeat CPU 0 instructions: 60000001 cycles: 177067737 heartbeat IPC: 0.332364 cumulative IPC: 0.286433 (Simulation time: 0 hr 14 min 19 sec) 
Heartbeat CPU 0 instructions: 70000002 cycles: 207195535 heartbeat IPC: 0.331919 cumulative IPC: 0.293128 (Simulation time: 0 hr 16 min 20 sec) 
Heartbeat CPU 0 instructions: 80000002 cycles: 239203812 heartbeat IPC: 0.312419 cumulative IPC: 0.295737 (Simulation time: 0 hr 18 min 29 sec) 
Heartbeat CPU 0 instructions: 90000003 cycles: 272056244 heartbeat IPC: 0.304392 cumulative IPC: 0.296792 (Simulation time: 0 hr 20 min 43 sec) 
Heartbeat CPU 0 instructions: 100000004 cycles: 304564937 heartbeat IPC: 0.30761 cumulative IPC: 0.297956 (Simulation time: 0 hr 22 min 59 sec) 
Heartbeat CPU 0 instructions: 110000003 cycles: 337621866 heartbeat IPC: 0.302508 cumulative IPC: 0.298405 (Simulation time: 0 hr 25 min 27 sec) 
Finished CPU 0 instructions: 100000004 cycles: 335114791 cumulative IPC: 0.298405 (Simulation time: 0 hr 25 min 27 sec) 

ChampSim completed all CPUs

Region of Interest Statistics

CPU 0 cumulative IPC: 0.298405 instructions: 100000004 cycles: 335114791
cpu0_DTLB TOTAL     ACCESS:   13895442  HIT:   13842668  MISS:      52774
cpu0_DTLB LOAD      ACCESS:    6989970  HIT:    6976771  MISS:      13199
cpu0_DTLB RFO       ACCESS:    6905472  HIT:    6865897  MISS:      39575
cpu0_DTLB PREFETCH  ACCESS:          0  HIT:          0  MISS:          0
cpu0_DTLB WRITEBACK ACCESS:          0  HIT:          0  MISS:          0
cpu0_DTLB TRANSLATION ACCESS:          0  HIT:          0  MISS:          0
cpu0_DTLB PREFETCH  REQUESTED:          0  ISSUED:          0  USEFUL:          0  USELESS:          0
cpu0_DTLB AVERAGE MISS LATENCY: 442.809 cycles
cpu0_ITLB TOTAL     ACCESS:     149883  HIT:     149882  MISS:          1
cpu0_ITLB LOAD      ACCESS:     149883  HIT:     149882  MISS:          1
cpu0_ITLB RFO       ACCESS:          0  HIT:          0  MISS:          0
cpu0_ITLB PREFETCH  ACCESS:          0  HIT:          0  MISS:          0
cpu0_ITLB WRITEBACK ACCESS:          0  HIT:          0  MISS:          0
cpu0_ITLB TRANSLATION ACCESS:          0  HIT:          0  MISS:          0
cpu0_ITLB PREFETCH  REQUESTED:          0  ISSUED:          0  USEFUL:          0  USELESS:          0
cpu0_ITLB AVERAGE MISS LATENCY: 867 cycles
cpu0_L1I TOTAL     ACCESS:         12  HIT:          6  MISS:          6
cpu0_L1I LOAD      ACCESS:         12  HIT:          6  MISS:          6
cpu0_L1I RFO       ACCESS:          0  HIT:          0  MISS:          0
cpu0_L1I PREFETCH  ACCESS:          0  HIT:          0  MISS:          0
cpu0_L1I WRITEBACK ACCESS:          0  HIT:          0  MISS:          0
cpu0_L1I TRANSLATION ACCESS:          0  HIT:          0  MISS:          0
cpu0_L1I PREFETCH  REQUESTED:          0  ISSUED:          0  USEFUL:          0  USELESS:          0
cpu0_L1I AVERAGE MISS LATENCY: 351.833 cycles
cpu0_STLB TOTAL     ACCESS:      52775  HIT:          5  MISS:      52770
cpu0_STLB LOAD      ACCESS:      13200  HIT:          0  MISS:      13200
cpu0_STLB RFO       ACCESS:      39575  HIT:          5  MISS:      39570
cpu0_STLB PREFETCH  ACCESS:          0  HIT:          0  MISS:          0
cpu0_STLB WRITEBACK ACCESS:          0  HIT:          0  MISS:          0
cpu0_STLB TRANSLATION ACCESS:          0  HIT:          0  MISS:          0
cpu0_STLB PREFETCH  REQUESTED:          0  ISSUED:          0  USEFUL:          0  USELESS:          0
cpu0_STLB AVERAGE MISS LATENCY: 433.858 cycles
cpu0_L1D TOTAL     ACCESS:   15374616  HIT:    9808415  MISS:    5566201
cpu0_L1D LOAD      ACCESS:    4368296  HIT:    3524701  MISS:     843595
cpu0_L1D RFO       ACCESS:   10953565  HIT:    6231010  MISS:    4722555
cpu0_L1D PREFETCH  ACCESS:          0  HIT:          0  MISS:          0
cpu0_L1D WRITEBACK ACCESS:          0  HIT:          0  MISS:          0
cpu0_L1D TRANSLATION ACCESS:      52755  HIT:      52704  MISS:         51
cpu0_L1D PREFETCH  REQUESTED:          0  ISSUED:          0  USEFUL:          0  USELESS:          0
cpu0_L1D AVERAGE MISS LATENCY: 443.429 cycles
cpu0_L2C TOTAL     ACCESS:   10288758  HIT:    6913187  MISS:    3375571
cpu0_L2C LOAD      ACCESS:     843601  HIT:        227  MISS:     843374
cpu0_L2C RFO       ACCESS:    4722554  HIT:    2190529  MISS:    2532025
cpu0_L2C PREFETCH  ACCESS:          0  HIT:          0  MISS:          0
cpu0_L2C WRITEBACK ACCESS:    4722552  HIT:    4722431  MISS:        121
cpu0_L2C TRANSLATION ACCESS:         51  HIT:          0  MISS:         51
cpu0_L2C PREFETCH  REQUESTED:          0  ISSUED:          0  USEFUL:          0  USELESS:          0
cpu0_L2C AVERAGE MISS LATENCY: 711.751 cycles
LLC TOTAL     ACCESS:    5907514  HIT:    1710927  MISS:    4196587
LLC LOAD      ACCESS:     843374  HIT:         68  MISS:     843306
LLC RFO       ACCESS:    2532025  HIT:     645831  MISS:    1886194
LLC PREFETCH  ACCESS:          0  HIT:          0  MISS:          0
LLC WRITEBACK ACCESS:    2532064  HIT:    1065014  MISS:    1467050
LLC TRANSLATION ACCESS:         51  HIT:         14  MISS:         37
LLC PREFETCH  REQUESTED:          0  ISSUED:          0  USEFUL:          0  USELESS:          0
LLC AVERAGE MISS LATENCY: 555.613 cycles
OPTgen accesses: 57392
OPTgen hits: 15003
OPTgen hit rate: 26.1413



DRAM Statistics
 CHANNEL 0
 RQ ROW_BUFFER_HIT:      49791  ROW_BUFFER_MISS:    2679506
 DBUS AVG_CONGESTED_CYCLE:    3.99521
 WQ ROW_BUFFER_HIT:      28105  ROW_BUFFER_MISS:    2150470  FULL:          0


CPU 0 Branch Prediction Accuracy: 99.0902% MPKI: 0.11542 Average ROB Occupancy at Mispredict: 182.084
Branch type MPKI
BRANCH_DIRECT_JUMP: 2e-05
BRANCH_INDIRECT: 0
BRANCH_CONDITIONAL: 0.11536
BRANCH_DIRECT_CALL: 2e-05
BRANCH_INDIRECT_CALL: 0
BRANCH_RETURN: 2e-05

