
*** ChampSim Multicore Out-of-Order Simulator ***

Warmup Instructions: 10000000
Simulation Instructions: 100000000
Number of CPUs: 1
Off-chip DRAM Size: 4 GiB Channels: 1 Width: 64-bit Data Rate: 3200 MT/s

VirtualMemory physical capacity: 8588881920 num_ppages: 2096895
VirtualMemory page size: 4096 log2_page_size: 12

CPU 0 runs /Users/brandon/Documents/CoursesWi22/CSE240C/Homework2/traces/bzip2_259B.trace.xz
CPU 0 Bimodal branch predictor
Basic BTB sets: 1024 ways: 8 indirect buffer size: 4096 RAS size: 64
Initialize SRRIP state
Heartbeat CPU 0 instructions: 10000002 cycles: 2535454 heartbeat IPC: 3.94407 cumulative IPC: 3.94407 (Simulation time: 0 hr 0 min 45 sec) 

Warmup complete CPU 0 instructions: 10000002 cycles: 2535454 (Simulation time: 0 hr 0 min 45 sec) 

Heartbeat CPU 0 instructions: 20000004 cycles: 9006093 heartbeat IPC: 1.54544 cumulative IPC: 1.54544 (Simulation time: 0 hr 2 min 51 sec) 
Heartbeat CPU 0 instructions: 30000002 cycles: 14441084 heartbeat IPC: 1.83993 cumulative IPC: 1.67988 (Simulation time: 0 hr 4 min 30 sec) 
Heartbeat CPU 0 instructions: 40000003 cycles: 21114145 heartbeat IPC: 1.49856 cumulative IPC: 1.61475 (Simulation time: 0 hr 5 min 41 sec) 
Heartbeat CPU 0 instructions: 50000003 cycles: 29321708 heartbeat IPC: 1.21839 cumulative IPC: 1.4933 (Simulation time: 0 hr 6 min 17 sec) 
Heartbeat CPU 0 instructions: 60000001 cycles: 37191881 heartbeat IPC: 1.27062 cumulative IPC: 1.44273 (Simulation time: 0 hr 6 min 55 sec) 
Heartbeat CPU 0 instructions: 70000004 cycles: 43543155 heartbeat IPC: 1.57449 cumulative IPC: 1.46314 (Simulation time: 0 hr 8 min 48 sec) 
Heartbeat CPU 0 instructions: 80000004 cycles: 50035878 heartbeat IPC: 1.54019 cumulative IPC: 1.47367 (Simulation time: 0 hr 10 min 44 sec) 
Heartbeat CPU 0 instructions: 90000001 cycles: 56243157 heartbeat IPC: 1.61101 cumulative IPC: 1.48954 (Simulation time: 0 hr 12 min 7 sec) 
Heartbeat CPU 0 instructions: 100000000 cycles: 64650430 heartbeat IPC: 1.18945 cumulative IPC: 1.44893 (Simulation time: 0 hr 12 min 44 sec) 
Heartbeat CPU 0 instructions: 110000000 cycles: 72616679 heartbeat IPC: 1.2553 cumulative IPC: 1.42692 (Simulation time: 0 hr 13 min 20 sec) 
Finished CPU 0 instructions: 100000003 cycles: 70081230 cumulative IPC: 1.42692 (Simulation time: 0 hr 13 min 20 sec) 

ChampSim completed all CPUs

Region of Interest Statistics

CPU 0 cumulative IPC: 1.42692 instructions: 100000003 cycles: 70081230
cpu0_DTLB TOTAL     ACCESS:   18625155  HIT:   17963548  MISS:     661607
cpu0_DTLB LOAD      ACCESS:    9571433  HIT:    8913738  MISS:     657695
cpu0_DTLB RFO       ACCESS:    9053722  HIT:    9049810  MISS:       3912
cpu0_DTLB PREFETCH  ACCESS:          0  HIT:          0  MISS:          0
cpu0_DTLB WRITEBACK ACCESS:          0  HIT:          0  MISS:          0
cpu0_DTLB TRANSLATION ACCESS:          0  HIT:          0  MISS:          0
cpu0_DTLB PREFETCH  REQUESTED:          0  ISSUED:          0  USEFUL:          0  USELESS:          0
cpu0_DTLB AVERAGE MISS LATENCY: 9.26277 cycles
cpu0_ITLB TOTAL     ACCESS:    6752876  HIT:    6752873  MISS:          3
cpu0_ITLB LOAD      ACCESS:    6752876  HIT:    6752873  MISS:          3
cpu0_ITLB RFO       ACCESS:          0  HIT:          0  MISS:          0
cpu0_ITLB PREFETCH  ACCESS:          0  HIT:          0  MISS:          0
cpu0_ITLB WRITEBACK ACCESS:          0  HIT:          0  MISS:          0
cpu0_ITLB TRANSLATION ACCESS:          0  HIT:          0  MISS:          0
cpu0_ITLB PREFETCH  REQUESTED:          0  ISSUED:          0  USEFUL:          0  USELESS:          0
cpu0_ITLB AVERAGE MISS LATENCY: 242 cycles
cpu0_L1I TOTAL     ACCESS:      58721  HIT:      58582  MISS:        139
cpu0_L1I LOAD      ACCESS:      58721  HIT:      58582  MISS:        139
cpu0_L1I RFO       ACCESS:          0  HIT:          0  MISS:          0
cpu0_L1I PREFETCH  ACCESS:          0  HIT:          0  MISS:          0
cpu0_L1I WRITEBACK ACCESS:          0  HIT:          0  MISS:          0
cpu0_L1I TRANSLATION ACCESS:          0  HIT:          0  MISS:          0
cpu0_L1I PREFETCH  REQUESTED:          0  ISSUED:          0  USEFUL:          0  USELESS:          0
cpu0_L1I AVERAGE MISS LATENCY: 208.022 cycles
cpu0_STLB TOTAL     ACCESS:     661610  HIT:     660790  MISS:        820
cpu0_STLB LOAD      ACCESS:     657698  HIT:     657423  MISS:        275
cpu0_STLB RFO       ACCESS:       3912  HIT:       3367  MISS:        545
cpu0_STLB PREFETCH  ACCESS:          0  HIT:          0  MISS:          0
cpu0_STLB WRITEBACK ACCESS:          0  HIT:          0  MISS:          0
cpu0_STLB TRANSLATION ACCESS:          0  HIT:          0  MISS:          0
cpu0_STLB PREFETCH  REQUESTED:          0  ISSUED:          0  USEFUL:          0  USELESS:          0
cpu0_STLB AVERAGE MISS LATENCY: 212.805 cycles
cpu0_L1D TOTAL     ACCESS:   20321240  HIT:   19315679  MISS:    1005561
cpu0_L1D LOAD      ACCESS:   10365811  HIT:    9479440  MISS:     886371
cpu0_L1D RFO       ACCESS:    9954613  HIT:    9835742  MISS:     118871
cpu0_L1D PREFETCH  ACCESS:          0  HIT:          0  MISS:          0
cpu0_L1D WRITEBACK ACCESS:          0  HIT:          0  MISS:          0
cpu0_L1D TRANSLATION ACCESS:        816  HIT:        497  MISS:        319
cpu0_L1D PREFETCH  REQUESTED:          0  ISSUED:          0  USEFUL:          0  USELESS:          0
cpu0_L1D AVERAGE MISS LATENCY: 84.9089 cycles
cpu0_L2C TOTAL     ACCESS:    1222689  HIT:     525784  MISS:     696905
cpu0_L2C LOAD      ACCESS:     886508  HIT:     289608  MISS:     596900
cpu0_L2C RFO       ACCESS:     118871  HIT:      18920  MISS:      99951
cpu0_L2C PREFETCH  ACCESS:          0  HIT:          0  MISS:          0
cpu0_L2C WRITEBACK ACCESS:     216991  HIT:     216953  MISS:         38
cpu0_L2C TRANSLATION ACCESS:        319  HIT:        303  MISS:         16
cpu0_L2C PREFETCH  REQUESTED:          0  ISSUED:          0  USEFUL:          0  USELESS:          0
cpu0_L2C AVERAGE MISS LATENCY: 106.677 cycles
LLC TOTAL     ACCESS:     885921  HIT:     604860  MISS:     281061
LLC LOAD      ACCESS:     596900  HIT:     416894  MISS:     180006
LLC RFO       ACCESS:      99947  HIT:      36529  MISS:      63418
LLC PREFETCH  ACCESS:          0  HIT:          0  MISS:          0
LLC WRITEBACK ACCESS:     189058  HIT:     151434  MISS:      37624
LLC TRANSLATION ACCESS:         16  HIT:          3  MISS:         13
LLC PREFETCH  REQUESTED:          0  ISSUED:          0  USEFUL:          0  USELESS:          0
LLC AVERAGE MISS LATENCY: 212.441 cycles
Insertion Distribution: 
	LOAD 45316 0 61261 74011 
	RFO 16248 0 26828 36298 
	PREF 0 0 0 0 
	WRITEBACK 0 0 0 37624 
	 0 0 12 12 
Total Prefetch Downgrades: 0

DRAM Statistics
 CHANNEL 0
 RQ ROW_BUFFER_HIT:      36998  ROW_BUFFER_MISS:     206277
 DBUS AVG_CONGESTED_CYCLE:    3.95223
 WQ ROW_BUFFER_HIT:      14683  ROW_BUFFER_MISS:     107125  FULL:        152


CPU 0 Branch Prediction Accuracy: 93.3658% MPKI: 11.2167 Average ROB Occupancy at Mispredict: 31.7523
Branch type MPKI
BRANCH_DIRECT_JUMP: 0.0006
BRANCH_INDIRECT: 0.01713
BRANCH_CONDITIONAL: 11.1989
BRANCH_DIRECT_CALL: 5e-05
BRANCH_INDIRECT_CALL: 0
BRANCH_RETURN: 6e-05

