
*** ChampSim Multicore Out-of-Order Simulator ***

Warmup Instructions: 10000000
Simulation Instructions: 100000000
Number of CPUs: 1
Off-chip DRAM Size: 4 GiB Channels: 1 Width: 64-bit Data Rate: 3200 MT/s

VirtualMemory physical capacity: 8588881920 num_ppages: 2096895
VirtualMemory page size: 4096 log2_page_size: 12

CPU 0 runs /Users/brandon/Documents/CoursesWi22/CSE240C/Homework2/traces/lbm_94B.trace.xz
CPU 0 Bimodal branch predictor
Basic BTB sets: 1024 ways: 8 indirect buffer size: 4096 RAS size: 64
Initialize SRRIP state
Heartbeat CPU 0 instructions: 10000000 cycles: 2544781 heartbeat IPC: 3.92961 cumulative IPC: 3.92961 (Simulation time: 0 hr 0 min 42 sec) 

Warmup complete CPU 0 instructions: 10000004 cycles: 2544782 (Simulation time: 0 hr 0 min 42 sec) 

Heartbeat CPU 0 instructions: 20000000 cycles: 39014415 heartbeat IPC: 0.274201 cumulative IPC: 0.274201 (Simulation time: 0 hr 4 min 47 sec) 
Heartbeat CPU 0 instructions: 30000004 cycles: 75174267 heartbeat IPC: 0.27655 cumulative IPC: 0.27537 (Simulation time: 0 hr 9 min 1 sec) 
Heartbeat CPU 0 instructions: 40000000 cycles: 110650974 heartbeat IPC: 0.281875 cumulative IPC: 0.277505 (Simulation time: 0 hr 13 min 13 sec) 
Heartbeat CPU 0 instructions: 50000001 cycles: 146022706 heartbeat IPC: 0.282712 cumulative IPC: 0.278789 (Simulation time: 0 hr 17 min 10 sec) 
Heartbeat CPU 0 instructions: 60000003 cycles: 180558387 heartbeat IPC: 0.289556 cumulative IPC: 0.280877 (Simulation time: 0 hr 21 min 2 sec) 
Heartbeat CPU 0 instructions: 70000001 cycles: 214300487 heartbeat IPC: 0.296366 cumulative IPC: 0.283345 (Simulation time: 0 hr 24 min 47 sec) 
Heartbeat CPU 0 instructions: 80000003 cycles: 248435450 heartbeat IPC: 0.292955 cumulative IPC: 0.284679 (Simulation time: 0 hr 28 min 45 sec) 
Heartbeat CPU 0 instructions: 90000003 cycles: 282504900 heartbeat IPC: 0.293518 cumulative IPC: 0.285755 (Simulation time: 0 hr 32 min 45 sec) 
Heartbeat CPU 0 instructions: 100000001 cycles: 316488300 heartbeat IPC: 0.294261 cumulative IPC: 0.286676 (Simulation time: 0 hr 36 min 45 sec) 
Heartbeat CPU 0 instructions: 110000003 cycles: 350341507 heartbeat IPC: 0.295393 cumulative IPC: 0.287524 (Simulation time: 0 hr 40 min 40 sec) 
Finished CPU 0 instructions: 100000004 cycles: 347796726 cumulative IPC: 0.287524 (Simulation time: 0 hr 40 min 40 sec) 

ChampSim completed all CPUs

Region of Interest Statistics

CPU 0 cumulative IPC: 0.287524 instructions: 100000004 cycles: 347796726
cpu0_DTLB TOTAL     ACCESS:   13207942  HIT:   13160190  MISS:      47752
cpu0_DTLB LOAD      ACCESS:    6758795  HIT:    6746847  MISS:      11948
cpu0_DTLB RFO       ACCESS:    6449147  HIT:    6413343  MISS:      35804
cpu0_DTLB PREFETCH  ACCESS:          0  HIT:          0  MISS:          0
cpu0_DTLB WRITEBACK ACCESS:          0  HIT:          0  MISS:          0
cpu0_DTLB TRANSLATION ACCESS:          0  HIT:          0  MISS:          0
cpu0_DTLB PREFETCH  REQUESTED:          0  ISSUED:          0  USEFUL:          0  USELESS:          0
cpu0_DTLB AVERAGE MISS LATENCY: 244.919 cycles
cpu0_ITLB TOTAL     ACCESS:     123257  HIT:     123257  MISS:          0
cpu0_ITLB LOAD      ACCESS:     123257  HIT:     123257  MISS:          0
cpu0_ITLB RFO       ACCESS:          0  HIT:          0  MISS:          0
cpu0_ITLB PREFETCH  ACCESS:          0  HIT:          0  MISS:          0
cpu0_ITLB WRITEBACK ACCESS:          0  HIT:          0  MISS:          0
cpu0_ITLB TRANSLATION ACCESS:          0  HIT:          0  MISS:          0
cpu0_ITLB PREFETCH  REQUESTED:          0  ISSUED:          0  USEFUL:          0  USELESS:          0
cpu0_ITLB AVERAGE MISS LATENCY: nan cycles
cpu0_STLB TOTAL     ACCESS:      47752  HIT:          0  MISS:      47752
cpu0_STLB LOAD      ACCESS:      11948  HIT:          0  MISS:      11948
cpu0_STLB RFO       ACCESS:      35804  HIT:          0  MISS:      35804
cpu0_STLB PREFETCH  ACCESS:          0  HIT:          0  MISS:          0
cpu0_STLB WRITEBACK ACCESS:          0  HIT:          0  MISS:          0
cpu0_STLB TRANSLATION ACCESS:          0  HIT:          0  MISS:          0
cpu0_STLB PREFETCH  REQUESTED:          0  ISSUED:          0  USEFUL:          0  USELESS:          0
cpu0_STLB AVERAGE MISS LATENCY: 235.919 cycles
cpu0_L1D TOTAL     ACCESS:   14654683  HIT:    9616155  MISS:    5038528
cpu0_L1D LOAD      ACCESS:    4301353  HIT:    3537879  MISS:     763474
cpu0_L1D RFO       ACCESS:   10305578  HIT:    6030571  MISS:    4275007
cpu0_L1D PREFETCH  ACCESS:          0  HIT:          0  MISS:          0
cpu0_L1D WRITEBACK ACCESS:          0  HIT:          0  MISS:          0
cpu0_L1D TRANSLATION ACCESS:      47752  HIT:      47705  MISS:         47
cpu0_L1D PREFETCH  REQUESTED:          0  ISSUED:          0  USEFUL:          0  USELESS:          0
cpu0_L1D AVERAGE MISS LATENCY: 458.986 cycles
cpu0_L2C TOTAL     ACCESS:    9313534  HIT:    6258807  MISS:    3054727
cpu0_L2C LOAD      ACCESS:     763474  HIT:          1  MISS:     763473
cpu0_L2C RFO       ACCESS:    4275007  HIT:    1983896  MISS:    2291111
cpu0_L2C PREFETCH  ACCESS:          0  HIT:          0  MISS:          0
cpu0_L2C WRITEBACK ACCESS:    4275006  HIT:    4274910  MISS:         96
cpu0_L2C TRANSLATION ACCESS:         47  HIT:          0  MISS:         47
cpu0_L2C PREFETCH  REQUESTED:          0  ISSUED:          0  USEFUL:          0  USELESS:          0
cpu0_L2C AVERAGE MISS LATENCY: 737.424 cycles
LLC TOTAL     ACCESS:    5345935  HIT:    1259930  MISS:    4086005
LLC LOAD      ACCESS:     763473  HIT:         75  MISS:     763398
LLC RFO       ACCESS:    2291111  HIT:     353092  MISS:    1938019
LLC PREFETCH  ACCESS:          0  HIT:          0  MISS:          0
LLC WRITEBACK ACCESS:    2291304  HIT:     906760  MISS:    1384544
LLC TRANSLATION ACCESS:         47  HIT:          3  MISS:         44
LLC PREFETCH  REQUESTED:          0  ISSUED:          0  USEFUL:          0  USELESS:          0
LLC AVERAGE MISS LATENCY: 535.604 cycles
Insertion Distribution: 
	LOAD 0 0 10419 838771 
	RFO 221706 0 414892 1524306 
	PREF 0 0 0 0 
	WRITEBACK 0 0 0 1522724 
	 0 0 50 6 
Total Prefetch Downgrades: 0

DRAM Statistics
 CHANNEL 0
 RQ ROW_BUFFER_HIT:      41617  ROW_BUFFER_MISS:    2659702
 DBUS AVG_CONGESTED_CYCLE:    3.99771
 WQ ROW_BUFFER_HIT:      18487  ROW_BUFFER_MISS:    1917453  FULL:          0


CPU 0 Branch Prediction Accuracy: 99.132% MPKI: 0.10209 Average ROB Occupancy at Mispredict: 173.656
Branch type MPKI
BRANCH_DIRECT_JUMP: 0
BRANCH_INDIRECT: 0
BRANCH_CONDITIONAL: 0.10209
BRANCH_DIRECT_CALL: 0
BRANCH_INDIRECT_CALL: 0
BRANCH_RETURN: 0

