
*** ChampSim Multicore Out-of-Order Simulator ***

Warmup Instructions: 10000000
Simulation Instructions: 100000000
Number of CPUs: 1
Off-chip DRAM Size: 4 GiB Channels: 1 Width: 64-bit Data Rate: 3200 MT/s

VirtualMemory physical capacity: 8588881920 num_ppages: 2096895
VirtualMemory page size: 4096 log2_page_size: 12

CPU 0 runs /Users/brandon/Documents/CoursesWi22/CSE240C/Homework2/traces/leslie3d_1116B.trace.xz
CPU 0 Bimodal branch predictor
Basic BTB sets: 1024 ways: 8 indirect buffer size: 4096 RAS size: 64
Initialize SRRIP state
Heartbeat CPU 0 instructions: 10000000 cycles: 3692435 heartbeat IPC: 2.70824 cumulative IPC: 2.70824 (Simulation time: 0 hr 1 min 21 sec) 

Warmup complete CPU 0 instructions: 10000005 cycles: 3692436 (Simulation time: 0 hr 1 min 21 sec) 

Heartbeat CPU 0 instructions: 20000000 cycles: 13802767 heartbeat IPC: 0.989087 cumulative IPC: 0.989087 (Simulation time: 0 hr 3 min 53 sec) 
Heartbeat CPU 0 instructions: 30000004 cycles: 24275094 heartbeat IPC: 0.954898 cumulative IPC: 0.971692 (Simulation time: 0 hr 6 min 26 sec) 
Heartbeat CPU 0 instructions: 40000004 cycles: 37031704 heartbeat IPC: 0.783907 cumulative IPC: 0.89984 (Simulation time: 0 hr 9 min 27 sec) 
Heartbeat CPU 0 instructions: 50000000 cycles: 58050631 heartbeat IPC: 0.475762 cumulative IPC: 0.73586 (Simulation time: 0 hr 13 min 43 sec) 
Heartbeat CPU 0 instructions: 60000001 cycles: 111017297 heartbeat IPC: 0.188798 cumulative IPC: 0.465875 (Simulation time: 0 hr 22 min 35 sec) 
Heartbeat CPU 0 instructions: 70000000 cycles: 125943719 heartbeat IPC: 0.669953 cumulative IPC: 0.490792 (Simulation time: 0 hr 25 min 57 sec) 
Heartbeat CPU 0 instructions: 80000001 cycles: 139241730 heartbeat IPC: 0.751992 cumulative IPC: 0.516417 (Simulation time: 0 hr 29 min 13 sec) 
Heartbeat CPU 0 instructions: 90000004 cycles: 153053064 heartbeat IPC: 0.724043 cumulative IPC: 0.535616 (Simulation time: 0 hr 32 min 34 sec) 
Heartbeat CPU 0 instructions: 100000002 cycles: 165913062 heartbeat IPC: 0.777605 cumulative IPC: 0.5548 (Simulation time: 0 hr 35 min 46 sec) 
Heartbeat CPU 0 instructions: 110000001 cycles: 188820043 heartbeat IPC: 0.436548 cumulative IPC: 0.540168 (Simulation time: 0 hr 40 min 12 sec) 
Finished CPU 0 instructions: 100000000 cycles: 185127609 cumulative IPC: 0.540168 (Simulation time: 0 hr 40 min 12 sec) 

ChampSim completed all CPUs

Region of Interest Statistics

CPU 0 cumulative IPC: 0.540168 instructions: 100000000 cycles: 185127609
cpu0_DTLB TOTAL     ACCESS:   25769634  HIT:   25703917  MISS:      65717
cpu0_DTLB LOAD      ACCESS:   21151938  HIT:   21100270  MISS:      51668
cpu0_DTLB RFO       ACCESS:    4617696  HIT:    4603647  MISS:      14049
cpu0_DTLB PREFETCH  ACCESS:          0  HIT:          0  MISS:          0
cpu0_DTLB WRITEBACK ACCESS:          0  HIT:          0  MISS:          0
cpu0_DTLB TRANSLATION ACCESS:          0  HIT:          0  MISS:          0
cpu0_DTLB PREFETCH  REQUESTED:          0  ISSUED:          0  USEFUL:          0  USELESS:          0
cpu0_DTLB AVERAGE MISS LATENCY: 83.6012 cycles
cpu0_ITLB TOTAL     ACCESS:    2880629  HIT:    2880611  MISS:         18
cpu0_ITLB LOAD      ACCESS:    2880629  HIT:    2880611  MISS:         18
cpu0_ITLB RFO       ACCESS:          0  HIT:          0  MISS:          0
cpu0_ITLB PREFETCH  ACCESS:          0  HIT:          0  MISS:          0
cpu0_ITLB WRITEBACK ACCESS:          0  HIT:          0  MISS:          0
cpu0_ITLB TRANSLATION ACCESS:          0  HIT:          0  MISS:          0
cpu0_ITLB PREFETCH  REQUESTED:          0  ISSUED:          0  USEFUL:          0  USELESS:          0
cpu0_ITLB AVERAGE MISS LATENCY: 402.389 cycles
cpu0_L1I TOTAL     ACCESS:    1781845  HIT:    1781373  MISS:        472
cpu0_L1I LOAD      ACCESS:    1781845  HIT:    1781373  MISS:        472
cpu0_L1I RFO       ACCESS:          0  HIT:          0  MISS:          0
cpu0_L1I PREFETCH  ACCESS:          0  HIT:          0  MISS:          0
cpu0_L1I WRITEBACK ACCESS:          0  HIT:          0  MISS:          0
cpu0_L1I TRANSLATION ACCESS:          0  HIT:          0  MISS:          0
cpu0_L1I PREFETCH  REQUESTED:          0  ISSUED:          0  USEFUL:          0  USELESS:          0
cpu0_L1I AVERAGE MISS LATENCY: 362.998 cycles
cpu0_STLB TOTAL     ACCESS:      65735  HIT:      34111  MISS:      31624
cpu0_STLB LOAD      ACCESS:      51686  HIT:      28220  MISS:      23466
cpu0_STLB RFO       ACCESS:      14049  HIT:       5891  MISS:       8158
cpu0_STLB PREFETCH  ACCESS:          0  HIT:          0  MISS:          0
cpu0_STLB WRITEBACK ACCESS:          0  HIT:          0  MISS:          0
cpu0_STLB TRANSLATION ACCESS:          0  HIT:          0  MISS:          0
cpu0_STLB PREFETCH  REQUESTED:          0  ISSUED:          0  USEFUL:          0  USELESS:          0
cpu0_STLB AVERAGE MISS LATENCY: 155.237 cycles
cpu0_L1D TOTAL     ACCESS:   24503387  HIT:   21093357  MISS:    3410030
cpu0_L1D LOAD      ACCESS:   16351577  HIT:   13734518  MISS:    2617059
cpu0_L1D RFO       ACCESS:    8122459  HIT:    7333130  MISS:     789329
cpu0_L1D PREFETCH  ACCESS:          0  HIT:          0  MISS:          0
cpu0_L1D WRITEBACK ACCESS:          0  HIT:          0  MISS:          0
cpu0_L1D TRANSLATION ACCESS:      29351  HIT:      25709  MISS:       3642
cpu0_L1D PREFETCH  REQUESTED:          0  ISSUED:          0  USEFUL:          0  USELESS:          0
cpu0_L1D AVERAGE MISS LATENCY: 515.199 cycles
cpu0_L2C TOTAL     ACCESS:    4454909  HIT:    1717753  MISS:    2737156
cpu0_L2C LOAD      ACCESS:    2617479  HIT:     507109  MISS:    2110370
cpu0_L2C RFO       ACCESS:     789274  HIT:     162844  MISS:     626430
cpu0_L2C PREFETCH  ACCESS:          0  HIT:          0  MISS:          0
cpu0_L2C WRITEBACK ACCESS:    1044514  HIT:    1044256  MISS:        258
cpu0_L2C TRANSLATION ACCESS:       3642  HIT:       3544  MISS:         98
cpu0_L2C PREFETCH  REQUESTED:          0  ISSUED:          0  USEFUL:          0  USELESS:          0
cpu0_L2C AVERAGE MISS LATENCY: 628.177 cycles
LLC TOTAL     ACCESS:    3497888  HIT:     686837  MISS:    2811051
LLC LOAD      ACCESS:    2110370  HIT:     406766  MISS:    1703604
LLC RFO       ACCESS:     626429  HIT:     119203  MISS:     507226
LLC PREFETCH  ACCESS:          0  HIT:          0  MISS:          0
LLC WRITEBACK ACCESS:     760991  HIT:     160830  MISS:     600161
LLC TRANSLATION ACCESS:         98  HIT:         38  MISS:         60
LLC PREFETCH  REQUESTED:          0  ISSUED:          0  USEFUL:          0  USELESS:          0
LLC AVERAGE MISS LATENCY: 591.18 cycles
Insertion Distribution: 
	LOAD 100544 0 237315 1477461 
	RFO 1590 0 35817 496219 
	PREF 0 0 0 0 
	WRITEBACK 0 0 0 619778 
	 2 0 41 32 
Total Prefetch Downgrades: 0

DRAM Statistics
 CHANNEL 0
 RQ ROW_BUFFER_HIT:     216955  ROW_BUFFER_MISS:    1993711
 DBUS AVG_CONGESTED_CYCLE:     3.9609
 WQ ROW_BUFFER_HIT:      62388  ROW_BUFFER_MISS:     582296  FULL:      27818


CPU 0 Branch Prediction Accuracy: 96.8713% MPKI: 1.55303 Average ROB Occupancy at Mispredict: 299.122
Branch type MPKI
BRANCH_DIRECT_JUMP: 0.00018
BRANCH_INDIRECT: 0
BRANCH_CONDITIONAL: 1.55065
BRANCH_DIRECT_CALL: 0.00113
BRANCH_INDIRECT_CALL: 0
BRANCH_RETURN: 0.00107

