
*** ChampSim Multicore Out-of-Order Simulator ***

Warmup Instructions: 10000000
Simulation Instructions: 100000000
Number of CPUs: 1
Off-chip DRAM Size: 4 GiB Channels: 1 Width: 64-bit Data Rate: 3200 MT/s

VirtualMemory physical capacity: 8588881920 num_ppages: 2096895
VirtualMemory page size: 4096 log2_page_size: 12

CPU 0 runs /Users/brandon/Documents/CoursesWi22/CSE240C/Homework2/traces/omnetpp_340B.trace.xz
CPU 0 Bimodal branch predictor
Basic BTB sets: 1024 ways: 8 indirect buffer size: 4096 RAS size: 64
Initialize SRRIP state
Heartbeat CPU 0 instructions: 10000002 cycles: 2500207 heartbeat IPC: 3.99967 cumulative IPC: 3.99967 (Simulation time: 0 hr 0 min 50 sec) 

Warmup complete CPU 0 instructions: 10000002 cycles: 2500207 (Simulation time: 0 hr 0 min 50 sec) 

Heartbeat CPU 0 instructions: 20000000 cycles: 27133418 heartbeat IPC: 0.405956 cumulative IPC: 0.405956 (Simulation time: 0 hr 2 min 24 sec) 
Heartbeat CPU 0 instructions: 30000002 cycles: 52307760 heartbeat IPC: 0.39723 cumulative IPC: 0.401546 (Simulation time: 0 hr 4 min 0 sec) 
Heartbeat CPU 0 instructions: 40000000 cycles: 77040118 heartbeat IPC: 0.404329 cumulative IPC: 0.402469 (Simulation time: 0 hr 5 min 33 sec) 
Heartbeat CPU 0 instructions: 50000002 cycles: 102242464 heartbeat IPC: 0.396789 cumulative IPC: 0.401034 (Simulation time: 0 hr 7 min 6 sec) 
Heartbeat CPU 0 instructions: 60000001 cycles: 128683215 heartbeat IPC: 0.378204 cumulative IPC: 0.39625 (Simulation time: 0 hr 8 min 49 sec) 
Heartbeat CPU 0 instructions: 70000002 cycles: 154735425 heartbeat IPC: 0.383845 cumulative IPC: 0.394127 (Simulation time: 0 hr 10 min 21 sec) 
Heartbeat CPU 0 instructions: 80000003 cycles: 180879613 heartbeat IPC: 0.382494 cumulative IPC: 0.392422 (Simulation time: 0 hr 12 min 7 sec) 
Heartbeat CPU 0 instructions: 90000000 cycles: 207244742 heartbeat IPC: 0.379289 cumulative IPC: 0.390731 (Simulation time: 0 hr 13 min 45 sec) 
Heartbeat CPU 0 instructions: 100000002 cycles: 233062669 heartbeat IPC: 0.387328 cumulative IPC: 0.39035 (Simulation time: 0 hr 15 min 30 sec) 
Heartbeat CPU 0 instructions: 110000000 cycles: 258038750 heartbeat IPC: 0.400383 cumulative IPC: 0.39133 (Simulation time: 0 hr 17 min 11 sec) 
Finished CPU 0 instructions: 100000000 cycles: 255538545 cumulative IPC: 0.39133 (Simulation time: 0 hr 17 min 11 sec) 

ChampSim completed all CPUs

Region of Interest Statistics

CPU 0 cumulative IPC: 0.39133 instructions: 100000000 cycles: 255538545
cpu0_DTLB TOTAL     ACCESS:   23853690  HIT:   21956628  MISS:    1897062
cpu0_DTLB LOAD      ACCESS:   13886870  HIT:   12305734  MISS:    1581136
cpu0_DTLB RFO       ACCESS:    9966820  HIT:    9650894  MISS:     315926
cpu0_DTLB PREFETCH  ACCESS:          0  HIT:          0  MISS:          0
cpu0_DTLB WRITEBACK ACCESS:          0  HIT:          0  MISS:          0
cpu0_DTLB TRANSLATION ACCESS:          0  HIT:          0  MISS:          0
cpu0_DTLB PREFETCH  REQUESTED:          0  ISSUED:          0  USEFUL:          0  USELESS:          0
cpu0_DTLB AVERAGE MISS LATENCY: 13.1247 cycles
cpu0_ITLB TOTAL     ACCESS:   11128605  HIT:   11093238  MISS:      35367
cpu0_ITLB LOAD      ACCESS:   11128605  HIT:   11093238  MISS:      35367
cpu0_ITLB RFO       ACCESS:          0  HIT:          0  MISS:          0
cpu0_ITLB PREFETCH  ACCESS:          0  HIT:          0  MISS:          0
cpu0_ITLB WRITEBACK ACCESS:          0  HIT:          0  MISS:          0
cpu0_ITLB TRANSLATION ACCESS:          0  HIT:          0  MISS:          0
cpu0_ITLB PREFETCH  REQUESTED:          0  ISSUED:          0  USEFUL:          0  USELESS:          0
cpu0_ITLB AVERAGE MISS LATENCY: 9.26058 cycles
cpu0_L1I TOTAL     ACCESS:    8347292  HIT:    8340940  MISS:       6352
cpu0_L1I LOAD      ACCESS:    8347292  HIT:    8340940  MISS:       6352
cpu0_L1I RFO       ACCESS:          0  HIT:          0  MISS:          0
cpu0_L1I PREFETCH  ACCESS:          0  HIT:          0  MISS:          0
cpu0_L1I WRITEBACK ACCESS:          0  HIT:          0  MISS:          0
cpu0_L1I TRANSLATION ACCESS:          0  HIT:          0  MISS:          0
cpu0_L1I PREFETCH  REQUESTED:          0  ISSUED:          0  USEFUL:          0  USELESS:          0
cpu0_L1I AVERAGE MISS LATENCY: 58.9584 cycles
cpu0_STLB TOTAL     ACCESS:    1932429  HIT:    1457233  MISS:     475196
cpu0_STLB LOAD      ACCESS:    1616503  HIT:    1262593  MISS:     353910
cpu0_STLB RFO       ACCESS:     315926  HIT:     194640  MISS:     121286
cpu0_STLB PREFETCH  ACCESS:          0  HIT:          0  MISS:          0
cpu0_STLB WRITEBACK ACCESS:          0  HIT:          0  MISS:          0
cpu0_STLB TRANSLATION ACCESS:          0  HIT:          0  MISS:          0
cpu0_STLB PREFETCH  REQUESTED:          0  ISSUED:          0  USEFUL:          0  USELESS:          0
cpu0_STLB AVERAGE MISS LATENCY: 16.015 cycles
cpu0_L1D TOTAL     ACCESS:   31468777  HIT:   28970867  MISS:    2497910
cpu0_L1D LOAD      ACCESS:   15714489  HIT:   13531507  MISS:    2182982
cpu0_L1D RFO       ACCESS:   15313880  HIT:   15003457  MISS:     310423
cpu0_L1D PREFETCH  ACCESS:          0  HIT:          0  MISS:          0
cpu0_L1D WRITEBACK ACCESS:          0  HIT:          0  MISS:          0
cpu0_L1D TRANSLATION ACCESS:     440408  HIT:     435903  MISS:       4505
cpu0_L1D PREFETCH  REQUESTED:          0  ISSUED:          0  USEFUL:          0  USELESS:          0
cpu0_L1D AVERAGE MISS LATENCY: 143.628 cycles
cpu0_L2C TOTAL     ACCESS:    3581326  HIT:    1431238  MISS:    2150088
cpu0_L2C LOAD      ACCESS:    2189295  HIT:     331213  MISS:    1858082
cpu0_L2C RFO       ACCESS:     310423  HIT:      21927  MISS:     288496
cpu0_L2C PREFETCH  ACCESS:          0  HIT:          0  MISS:          0
cpu0_L2C WRITEBACK ACCESS:    1077103  HIT:    1074794  MISS:       2309
cpu0_L2C TRANSLATION ACCESS:       4505  HIT:       3304  MISS:       1201
cpu0_L2C PREFETCH  REQUESTED:          0  ISSUED:          0  USEFUL:          0  USELESS:          0
cpu0_L2C AVERAGE MISS LATENCY: 154.067 cycles
LLC TOTAL     ACCESS:    3079429  HIT:    1047440  MISS:    2031989
LLC LOAD      ACCESS:    1858082  HIT:     434244  MISS:    1423838
LLC RFO       ACCESS:     288495  HIT:      70090  MISS:     218405
LLC PREFETCH  ACCESS:          0  HIT:          0  MISS:          0
LLC WRITEBACK ACCESS:     931651  HIT:     541961  MISS:     389690
LLC TRANSLATION ACCESS:       1201  HIT:       1145  MISS:         56
LLC PREFETCH  REQUESTED:          0  ISSUED:          0  USEFUL:          0  USELESS:          0
LLC AVERAGE MISS LATENCY: 140.824 cycles
Insertion Distribution: 
	LOAD 173060 0 191839 1211211 
	RFO 63405 0 72379 105015 
	PREF 0 0 0 0 
	WRITEBACK 0 0 0 419079 
	 16 0 50 15 
Total Prefetch Downgrades: 0

DRAM Statistics
 CHANNEL 0
 RQ ROW_BUFFER_HIT:      94271  ROW_BUFFER_MISS:    1547918
 DBUS AVG_CONGESTED_CYCLE:    3.92061
 WQ ROW_BUFFER_HIT:     170486  ROW_BUFFER_MISS:     501730  FULL:          0


CPU 0 Branch Prediction Accuracy: 94.4212% MPKI: 13.4017 Average ROB Occupancy at Mispredict: 51.8564
Branch type MPKI
BRANCH_DIRECT_JUMP: 0.00017
BRANCH_INDIRECT: 0.04543
BRANCH_CONDITIONAL: 13.2857
BRANCH_DIRECT_CALL: 8e-05
BRANCH_INDIRECT_CALL: 0.04734
BRANCH_RETURN: 0.02301

