
*** ChampSim Multicore Out-of-Order Simulator ***

Warmup Instructions: 10000000
Simulation Instructions: 100000000
Number of CPUs: 1
Off-chip DRAM Size: 4 GiB Channels: 1 Width: 64-bit Data Rate: 3200 MT/s

VirtualMemory physical capacity: 8588881920 num_ppages: 2096895
VirtualMemory page size: 4096 log2_page_size: 12

CPU 0 runs /Users/brandon/Documents/CoursesWi22/CSE240C/Homework2/traces/perlbench_53B.trace.xz
CPU 0 Bimodal branch predictor
Basic BTB sets: 1024 ways: 8 indirect buffer size: 4096 RAS size: 64
Initialize SRRIP state
Heartbeat CPU 0 instructions: 10000000 cycles: 2503726 heartbeat IPC: 3.99405 cumulative IPC: 3.99405 (Simulation time: 0 hr 0 min 46 sec) 

Warmup complete CPU 0 instructions: 10000004 cycles: 2503727 (Simulation time: 0 hr 0 min 46 sec) 

Heartbeat CPU 0 instructions: 20000001 cycles: 15177336 heartbeat IPC: 0.789041 cumulative IPC: 0.789041 (Simulation time: 0 hr 1 min 37 sec) 
Heartbeat CPU 0 instructions: 30000001 cycles: 25197781 heartbeat IPC: 0.99796 cumulative IPC: 0.881288 (Simulation time: 0 hr 2 min 29 sec) 
Heartbeat CPU 0 instructions: 40000004 cycles: 37199423 heartbeat IPC: 0.83322 cumulative IPC: 0.864661 (Simulation time: 0 hr 3 min 18 sec) 
Heartbeat CPU 0 instructions: 50000001 cycles: 48404504 heartbeat IPC: 0.892452 cumulative IPC: 0.871445 (Simulation time: 0 hr 4 min 7 sec) 
Heartbeat CPU 0 instructions: 60000004 cycles: 61438268 heartbeat IPC: 0.767238 cumulative IPC: 0.848399 (Simulation time: 0 hr 5 min 2 sec) 
Heartbeat CPU 0 instructions: 70000004 cycles: 75236886 heartbeat IPC: 0.72471 cumulative IPC: 0.824933 (Simulation time: 0 hr 5 min 58 sec) 
Heartbeat CPU 0 instructions: 80000004 cycles: 88950591 heartbeat IPC: 0.729198 cumulative IPC: 0.809746 (Simulation time: 0 hr 6 min 53 sec) 
Heartbeat CPU 0 instructions: 90000001 cycles: 101648186 heartbeat IPC: 0.78755 cumulative IPC: 0.806903 (Simulation time: 0 hr 7 min 48 sec) 
Heartbeat CPU 0 instructions: 100000003 cycles: 115483312 heartbeat IPC: 0.722798 cumulative IPC: 0.796604 (Simulation time: 0 hr 8 min 46 sec) 
Heartbeat CPU 0 instructions: 110000002 cycles: 127780124 heartbeat IPC: 0.813219 cumulative IPC: 0.798235 (Simulation time: 0 hr 9 min 40 sec) 
Finished CPU 0 instructions: 100000000 cycles: 125276398 cumulative IPC: 0.798235 (Simulation time: 0 hr 9 min 40 sec) 

ChampSim completed all CPUs

Region of Interest Statistics

CPU 0 cumulative IPC: 0.798235 instructions: 100000000 cycles: 125276398
cpu0_DTLB TOTAL     ACCESS:   24815372  HIT:   24162794  MISS:     652578
cpu0_DTLB LOAD      ACCESS:   16193938  HIT:   15632202  MISS:     561736
cpu0_DTLB RFO       ACCESS:    8621434  HIT:    8530592  MISS:      90842
cpu0_DTLB PREFETCH  ACCESS:          0  HIT:          0  MISS:          0
cpu0_DTLB WRITEBACK ACCESS:          0  HIT:          0  MISS:          0
cpu0_DTLB TRANSLATION ACCESS:          0  HIT:          0  MISS:          0
cpu0_DTLB PREFETCH  REQUESTED:          0  ISSUED:          0  USEFUL:          0  USELESS:          0
cpu0_DTLB AVERAGE MISS LATENCY: 9.25683 cycles
cpu0_ITLB TOTAL     ACCESS:    8010995  HIT:    7934410  MISS:      76585
cpu0_ITLB LOAD      ACCESS:    8010995  HIT:    7934410  MISS:      76585
cpu0_ITLB RFO       ACCESS:          0  HIT:          0  MISS:          0
cpu0_ITLB PREFETCH  ACCESS:          0  HIT:          0  MISS:          0
cpu0_ITLB WRITEBACK ACCESS:          0  HIT:          0  MISS:          0
cpu0_ITLB TRANSLATION ACCESS:          0  HIT:          0  MISS:          0
cpu0_ITLB PREFETCH  REQUESTED:          0  ISSUED:          0  USEFUL:          0  USELESS:          0
cpu0_ITLB AVERAGE MISS LATENCY: 9.11134 cycles
cpu0_L1I TOTAL     ACCESS:   11821066  HIT:   11144876  MISS:     676190
cpu0_L1I LOAD      ACCESS:   11821066  HIT:   11144876  MISS:     676190
cpu0_L1I RFO       ACCESS:          0  HIT:          0  MISS:          0
cpu0_L1I PREFETCH  ACCESS:          0  HIT:          0  MISS:          0
cpu0_L1I WRITEBACK ACCESS:          0  HIT:          0  MISS:          0
cpu0_L1I TRANSLATION ACCESS:          0  HIT:          0  MISS:          0
cpu0_L1I PREFETCH  REQUESTED:          0  ISSUED:          0  USEFUL:          0  USELESS:          0
cpu0_L1I AVERAGE MISS LATENCY: 12.2361 cycles
cpu0_STLB TOTAL     ACCESS:     729163  HIT:     723350  MISS:       5813
cpu0_STLB LOAD      ACCESS:     638321  HIT:     633204  MISS:       5117
cpu0_STLB RFO       ACCESS:      90842  HIT:      90146  MISS:        696
cpu0_STLB PREFETCH  ACCESS:          0  HIT:          0  MISS:          0
cpu0_STLB WRITEBACK ACCESS:          0  HIT:          0  MISS:          0
cpu0_STLB TRANSLATION ACCESS:          0  HIT:          0  MISS:          0
cpu0_STLB PREFETCH  REQUESTED:          0  ISSUED:          0  USEFUL:          0  USELESS:          0
cpu0_STLB AVERAGE MISS LATENCY: 29.5457 cycles
cpu0_L1D TOTAL     ACCESS:   31989296  HIT:   31031554  MISS:     957742
cpu0_L1D LOAD      ACCESS:   17001285  HIT:   16128553  MISS:     872732
cpu0_L1D RFO       ACCESS:   14982240  HIT:   14898506  MISS:      83734
cpu0_L1D PREFETCH  ACCESS:          0  HIT:          0  MISS:          0
cpu0_L1D WRITEBACK ACCESS:          0  HIT:          0  MISS:          0
cpu0_L1D TRANSLATION ACCESS:       5771  HIT:       4495  MISS:       1276
cpu0_L1D PREFETCH  REQUESTED:          0  ISSUED:          0  USEFUL:          0  USELESS:          0
cpu0_L1D AVERAGE MISS LATENCY: 16.9108 cycles
cpu0_L2C TOTAL     ACCESS:    1881688  HIT:    1714289  MISS:     167399
cpu0_L2C LOAD      ACCESS:    1548908  HIT:    1403203  MISS:     145705
cpu0_L2C RFO       ACCESS:      83729  HIT:      62534  MISS:      21195
cpu0_L2C PREFETCH  ACCESS:          0  HIT:          0  MISS:          0
cpu0_L2C WRITEBACK ACCESS:     247775  HIT:     247342  MISS:        433
cpu0_L2C TRANSLATION ACCESS:       1276  HIT:       1210  MISS:         66
cpu0_L2C PREFETCH  REQUESTED:          0  ISSUED:          0  USEFUL:          0  USELESS:          0
cpu0_L2C AVERAGE MISS LATENCY: 38.6548 cycles
LLC TOTAL     ACCESS:     214317  HIT:     193748  MISS:      20569
LLC LOAD      ACCESS:     145705  HIT:     130868  MISS:      14837
LLC RFO       ACCESS:      21195  HIT:      16158  MISS:       5037
LLC PREFETCH  ACCESS:          0  HIT:          0  MISS:          0
LLC WRITEBACK ACCESS:      47351  HIT:      46657  MISS:        694
LLC TRANSLATION ACCESS:         66  HIT:         65  MISS:          1
LLC PREFETCH  REQUESTED:          0  ISSUED:          0  USEFUL:          0  USELESS:          0
LLC AVERAGE MISS LATENCY: 144.123 cycles
Insertion Distribution: 
	LOAD 6466 0 27562 243 
	RFO 1231 0 5674 123 
	PREF 0 0 0 0 
	WRITEBACK 0 0 0 697 
	 0 0 22 0 
Total Prefetch Downgrades: 0

DRAM Statistics
 CHANNEL 0
 RQ ROW_BUFFER_HIT:       3912  ROW_BUFFER_MISS:      15963
 DBUS AVG_CONGESTED_CYCLE:    3.85404
 WQ ROW_BUFFER_HIT:        895  ROW_BUFFER_MISS:       2875  FULL:          0


CPU 0 Branch Prediction Accuracy: 94.2848% MPKI: 12.6658 Average ROB Occupancy at Mispredict: 36.2864
Branch type MPKI
BRANCH_DIRECT_JUMP: 0.00232
BRANCH_INDIRECT: 0.81431
BRANCH_CONDITIONAL: 10.3853
BRANCH_DIRECT_CALL: 0.00236
BRANCH_INDIRECT_CALL: 1.44344
BRANCH_RETURN: 0.01802

