
*** ChampSim Multicore Out-of-Order Simulator ***

Warmup Instructions: 10000000
Simulation Instructions: 100000000
Number of CPUs: 1
Off-chip DRAM Size: 4 GiB Channels: 1 Width: 64-bit Data Rate: 3200 MT/s

VirtualMemory physical capacity: 8588881920 num_ppages: 2096895
VirtualMemory page size: 4096 log2_page_size: 12

CPU 0 runs /Users/brandon/Documents/CoursesWi22/CSE240C/Homework2/traces/xalancbmk_99B.trace.xz
CPU 0 Bimodal branch predictor
Basic BTB sets: 1024 ways: 8 indirect buffer size: 4096 RAS size: 64
Initialize SRRIP state
Heartbeat CPU 0 instructions: 10000001 cycles: 3058759 heartbeat IPC: 3.2693 cumulative IPC: 3.2693 (Simulation time: 0 hr 1 min 5 sec) 

Warmup complete CPU 0 instructions: 10000001 cycles: 3058759 (Simulation time: 0 hr 1 min 5 sec) 

Heartbeat CPU 0 instructions: 20000003 cycles: 37568996 heartbeat IPC: 0.289769 cumulative IPC: 0.289769 (Simulation time: 0 hr 2 min 21 sec) 
Heartbeat CPU 0 instructions: 30000000 cycles: 74384559 heartbeat IPC: 0.271624 cumulative IPC: 0.280403 (Simulation time: 0 hr 3 min 42 sec) 
Heartbeat CPU 0 instructions: 40000000 cycles: 108997064 heartbeat IPC: 0.288913 cumulative IPC: 0.283184 (Simulation time: 0 hr 4 min 59 sec) 
Heartbeat CPU 0 instructions: 50000002 cycles: 144961005 heartbeat IPC: 0.278056 cumulative IPC: 0.281884 (Simulation time: 0 hr 6 min 15 sec) 
Heartbeat CPU 0 instructions: 60000002 cycles: 180540149 heartbeat IPC: 0.281064 cumulative IPC: 0.28172 (Simulation time: 0 hr 7 min 28 sec) 
Heartbeat CPU 0 instructions: 70000002 cycles: 214001696 heartbeat IPC: 0.298851 cumulative IPC: 0.284437 (Simulation time: 0 hr 8 min 45 sec) 
Heartbeat CPU 0 instructions: 80000001 cycles: 248637837 heartbeat IPC: 0.288716 cumulative IPC: 0.285041 (Simulation time: 0 hr 10 min 2 sec) 
Heartbeat CPU 0 instructions: 90000000 cycles: 284607508 heartbeat IPC: 0.278012 cumulative IPC: 0.284143 (Simulation time: 0 hr 11 min 23 sec) 
Heartbeat CPU 0 instructions: 100000000 cycles: 316377526 heartbeat IPC: 0.314762 cumulative IPC: 0.287247 (Simulation time: 0 hr 12 min 30 sec) 
Heartbeat CPU 0 instructions: 110000001 cycles: 348420910 heartbeat IPC: 0.312077 cumulative IPC: 0.289551 (Simulation time: 0 hr 13 min 36 sec) 
Finished CPU 0 instructions: 100000000 cycles: 345362151 cumulative IPC: 0.289551 (Simulation time: 0 hr 13 min 36 sec) 

ChampSim completed all CPUs

Region of Interest Statistics

CPU 0 cumulative IPC: 0.289551 instructions: 100000000 cycles: 345362151
cpu0_DTLB TOTAL     ACCESS:   22809980  HIT:   22249291  MISS:     560689
cpu0_DTLB LOAD      ACCESS:   21430792  HIT:   20879682  MISS:     551110
cpu0_DTLB RFO       ACCESS:    1379188  HIT:    1369609  MISS:       9579
cpu0_DTLB PREFETCH  ACCESS:          0  HIT:          0  MISS:          0
cpu0_DTLB WRITEBACK ACCESS:          0  HIT:          0  MISS:          0
cpu0_DTLB TRANSLATION ACCESS:          0  HIT:          0  MISS:          0
cpu0_DTLB PREFETCH  REQUESTED:          0  ISSUED:          0  USEFUL:          0  USELESS:          0
cpu0_DTLB AVERAGE MISS LATENCY: 37.0833 cycles
cpu0_ITLB TOTAL     ACCESS:   13331737  HIT:   13304379  MISS:      27358
cpu0_ITLB LOAD      ACCESS:   13331737  HIT:   13304379  MISS:      27358
cpu0_ITLB RFO       ACCESS:          0  HIT:          0  MISS:          0
cpu0_ITLB PREFETCH  ACCESS:          0  HIT:          0  MISS:          0
cpu0_ITLB WRITEBACK ACCESS:          0  HIT:          0  MISS:          0
cpu0_ITLB TRANSLATION ACCESS:          0  HIT:          0  MISS:          0
cpu0_ITLB PREFETCH  REQUESTED:          0  ISSUED:          0  USEFUL:          0  USELESS:          0
cpu0_ITLB AVERAGE MISS LATENCY: 10.9141 cycles
cpu0_L1I TOTAL     ACCESS:     671240  HIT:     564156  MISS:     107084
cpu0_L1I LOAD      ACCESS:     671240  HIT:     564156  MISS:     107084
cpu0_L1I RFO       ACCESS:          0  HIT:          0  MISS:          0
cpu0_L1I PREFETCH  ACCESS:          0  HIT:          0  MISS:          0
cpu0_L1I WRITEBACK ACCESS:          0  HIT:          0  MISS:          0
cpu0_L1I TRANSLATION ACCESS:          0  HIT:          0  MISS:          0
cpu0_L1I PREFETCH  REQUESTED:          0  ISSUED:          0  USEFUL:          0  USELESS:          0
cpu0_L1I AVERAGE MISS LATENCY: 28.3625 cycles
cpu0_STLB TOTAL     ACCESS:     588047  HIT:     173034  MISS:     415013
cpu0_STLB LOAD      ACCESS:     578468  HIT:     164994  MISS:     413474
cpu0_STLB RFO       ACCESS:       9579  HIT:       8040  MISS:       1539
cpu0_STLB PREFETCH  ACCESS:          0  HIT:          0  MISS:          0
cpu0_STLB WRITEBACK ACCESS:          0  HIT:          0  MISS:          0
cpu0_STLB TRANSLATION ACCESS:          0  HIT:          0  MISS:          0
cpu0_STLB PREFETCH  REQUESTED:          0  ISSUED:          0  USEFUL:          0  USELESS:          0
cpu0_STLB AVERAGE MISS LATENCY: 37.9912 cycles
cpu0_L1D TOTAL     ACCESS:   17698504  HIT:   14553396  MISS:    3145108
cpu0_L1D LOAD      ACCESS:   15458646  HIT:   12331438  MISS:    3127208
cpu0_L1D RFO       ACCESS:    1870294  HIT:    1858343  MISS:      11951
cpu0_L1D PREFETCH  ACCESS:          0  HIT:          0  MISS:          0
cpu0_L1D WRITEBACK ACCESS:          0  HIT:          0  MISS:          0
cpu0_L1D TRANSLATION ACCESS:     369564  HIT:     363615  MISS:       5949
cpu0_L1D PREFETCH  REQUESTED:          0  ISSUED:          0  USEFUL:          0  USELESS:          0
cpu0_L1D AVERAGE MISS LATENCY: 147.554 cycles
cpu0_L2C TOTAL     ACCESS:    3279984  HIT:     137040  MISS:    3142944
cpu0_L2C LOAD      ACCESS:    3234282  HIT:     102281  MISS:    3132001
cpu0_L2C RFO       ACCESS:      11947  HIT:       2668  MISS:       9279
cpu0_L2C PREFETCH  ACCESS:          0  HIT:          0  MISS:          0
cpu0_L2C WRITEBACK ACCESS:      27806  HIT:      27427  MISS:        379
cpu0_L2C TRANSLATION ACCESS:       5949  HIT:       4664  MISS:       1285
cpu0_L2C PREFETCH  REQUESTED:          0  ISSUED:          0  USEFUL:          0  USELESS:          0
cpu0_L2C AVERAGE MISS LATENCY: 137.084 cycles
LLC TOTAL     ACCESS:    3162895  HIT:     815958  MISS:    2346937
LLC LOAD      ACCESS:    3132001  HIT:     794238  MISS:    2337763
LLC RFO       ACCESS:       9279  HIT:       4102  MISS:       5177
LLC PREFETCH  ACCESS:          0  HIT:          0  MISS:          0
LLC WRITEBACK ACCESS:      20330  HIT:      16467  MISS:       3863
LLC TRANSLATION ACCESS:       1285  HIT:       1151  MISS:        134
LLC PREFETCH  REQUESTED:          0  ISSUED:          0  USEFUL:          0  USELESS:          0
LLC AVERAGE MISS LATENCY: 155.459 cycles
Insertion Distribution: 
	LOAD 70931 0 235698 2278653 
	RFO 11 0 2516 2943 
	PREF 0 0 0 0 
	WRITEBACK 0 0 0 3998 
	 4 0 29 122 
Total Prefetch Downgrades: 0

DRAM Statistics
 CHANNEL 0
 RQ ROW_BUFFER_HIT:     634541  ROW_BUFFER_MISS:    1708533
 DBUS AVG_CONGESTED_CYCLE:    3.91881
 WQ ROW_BUFFER_HIT:       2503  ROW_BUFFER_MISS:       3973  FULL:          0


CPU 0 Branch Prediction Accuracy: 90.7444% MPKI: 27.9345 Average ROB Occupancy at Mispredict: 19.3528
Branch type MPKI
BRANCH_DIRECT_JUMP: 0.00034
BRANCH_INDIRECT: 0.0087
BRANCH_CONDITIONAL: 27.8577
BRANCH_DIRECT_CALL: 0.00024
BRANCH_INDIRECT_CALL: 0.02508
BRANCH_RETURN: 0.04245

