
*** ChampSim Multicore Out-of-Order Simulator ***

Warmup Instructions: 10000000
Simulation Instructions: 100000000
Number of CPUs: 1
Off-chip DRAM Size: 4 GiB Channels: 1 Width: 64-bit Data Rate: 3200 MT/s

VirtualMemory physical capacity: 8588881920 num_ppages: 2096895
VirtualMemory page size: 4096 log2_page_size: 12

CPU 0 runs /Users/brandon/Documents/CoursesWi22/CSE240C/Homework2/traces/xalancbmk_748B.trace.xz
CPU 0 Bimodal branch predictor
Basic BTB sets: 1024 ways: 8 indirect buffer size: 4096 RAS size: 64
Initialize SRRIP state
Heartbeat CPU 0 instructions: 10000002 cycles: 2655088 heartbeat IPC: 3.76635 cumulative IPC: 3.76635 (Simulation time: 0 hr 0 min 58 sec) 

Warmup complete CPU 0 instructions: 10000002 cycles: 2655088 (Simulation time: 0 hr 0 min 58 sec) 

Heartbeat CPU 0 instructions: 20000001 cycles: 11808037 heartbeat IPC: 1.09254 cumulative IPC: 1.09254 (Simulation time: 0 hr 2 min 0 sec) 
Heartbeat CPU 0 instructions: 30000002 cycles: 20696731 heartbeat IPC: 1.12502 cumulative IPC: 1.10855 (Simulation time: 0 hr 2 min 58 sec) 
Heartbeat CPU 0 instructions: 40000002 cycles: 30018162 heartbeat IPC: 1.0728 cumulative IPC: 1.09637 (Simulation time: 0 hr 4 min 0 sec) 
Heartbeat CPU 0 instructions: 50000001 cycles: 38523402 heartbeat IPC: 1.17575 cumulative IPC: 1.11519 (Simulation time: 0 hr 5 min 3 sec) 
Heartbeat CPU 0 instructions: 60000003 cycles: 45649903 heartbeat IPC: 1.40321 cumulative IPC: 1.16293 (Simulation time: 0 hr 6 min 17 sec) 
Heartbeat CPU 0 instructions: 70000000 cycles: 51749338 heartbeat IPC: 1.6395 cumulative IPC: 1.22214 (Simulation time: 0 hr 7 min 44 sec) 
Heartbeat CPU 0 instructions: 80000003 cycles: 62110143 heartbeat IPC: 0.965176 cumulative IPC: 1.17736 (Simulation time: 0 hr 8 min 56 sec) 
Heartbeat CPU 0 instructions: 90000003 cycles: 70710380 heartbeat IPC: 1.16276 cumulative IPC: 1.17551 (Simulation time: 0 hr 10 min 1 sec) 
Heartbeat CPU 0 instructions: 100000003 cycles: 78660184 heartbeat IPC: 1.25789 cumulative IPC: 1.18413 (Simulation time: 0 hr 11 min 10 sec) 
Heartbeat CPU 0 instructions: 110000001 cycles: 85909605 heartbeat IPC: 1.37942 cumulative IPC: 1.20114 (Simulation time: 0 hr 12 min 22 sec) 
Finished CPU 0 instructions: 100000004 cycles: 83254518 cumulative IPC: 1.20114 (Simulation time: 0 hr 12 min 22 sec) 

ChampSim completed all CPUs

Region of Interest Statistics

CPU 0 cumulative IPC: 1.20114 instructions: 100000004 cycles: 83254518
cpu0_DTLB TOTAL     ACCESS:   20937830  HIT:   19922581  MISS:    1015249
cpu0_DTLB LOAD      ACCESS:   15325323  HIT:   14390508  MISS:     934815
cpu0_DTLB RFO       ACCESS:    5612507  HIT:    5532073  MISS:      80434
cpu0_DTLB PREFETCH  ACCESS:          0  HIT:          0  MISS:          0
cpu0_DTLB WRITEBACK ACCESS:          0  HIT:          0  MISS:          0
cpu0_DTLB TRANSLATION ACCESS:          0  HIT:          0  MISS:          0
cpu0_DTLB PREFETCH  REQUESTED:          0  ISSUED:          0  USEFUL:          0  USELESS:          0
cpu0_DTLB AVERAGE MISS LATENCY: 12.6343 cycles
cpu0_ITLB TOTAL     ACCESS:    8530974  HIT:    8415939  MISS:     115035
cpu0_ITLB LOAD      ACCESS:    8530974  HIT:    8415939  MISS:     115035
cpu0_ITLB RFO       ACCESS:          0  HIT:          0  MISS:          0
cpu0_ITLB PREFETCH  ACCESS:          0  HIT:          0  MISS:          0
cpu0_ITLB WRITEBACK ACCESS:          0  HIT:          0  MISS:          0
cpu0_ITLB TRANSLATION ACCESS:          0  HIT:          0  MISS:          0
cpu0_ITLB PREFETCH  REQUESTED:          0  ISSUED:          0  USEFUL:          0  USELESS:          0
cpu0_ITLB AVERAGE MISS LATENCY: 9.08094 cycles
cpu0_L1I TOTAL     ACCESS:    5572369  HIT:    5474351  MISS:      98018
cpu0_L1I LOAD      ACCESS:    5572369  HIT:    5474351  MISS:      98018
cpu0_L1I RFO       ACCESS:          0  HIT:          0  MISS:          0
cpu0_L1I PREFETCH  ACCESS:          0  HIT:          0  MISS:          0
cpu0_L1I WRITEBACK ACCESS:          0  HIT:          0  MISS:          0
cpu0_L1I TRANSLATION ACCESS:          0  HIT:          0  MISS:          0
cpu0_L1I PREFETCH  REQUESTED:          0  ISSUED:          0  USEFUL:          0  USELESS:          0
cpu0_L1I AVERAGE MISS LATENCY: 14.8802 cycles
cpu0_STLB TOTAL     ACCESS:    1130284  HIT:    1056274  MISS:      74010
cpu0_STLB LOAD      ACCESS:    1049850  HIT:    1003762  MISS:      46088
cpu0_STLB RFO       ACCESS:      80434  HIT:      52512  MISS:      27922
cpu0_STLB PREFETCH  ACCESS:          0  HIT:          0  MISS:          0
cpu0_STLB WRITEBACK ACCESS:          0  HIT:          0  MISS:          0
cpu0_STLB TRANSLATION ACCESS:          0  HIT:          0  MISS:          0
cpu0_STLB PREFETCH  REQUESTED:          0  ISSUED:          0  USEFUL:          0  USELESS:          0
cpu0_STLB AVERAGE MISS LATENCY: 49.8237 cycles
cpu0_L1D TOTAL     ACCESS:   22867433  HIT:   21392841  MISS:    1474592
cpu0_L1D LOAD      ACCESS:   13615085  HIT:   12401680  MISS:    1213405
cpu0_L1D RFO       ACCESS:    9185505  HIT:    8939294  MISS:     246211
cpu0_L1D PREFETCH  ACCESS:          0  HIT:          0  MISS:          0
cpu0_L1D WRITEBACK ACCESS:          0  HIT:          0  MISS:          0
cpu0_L1D TRANSLATION ACCESS:      66843  HIT:      51867  MISS:      14976
cpu0_L1D PREFETCH  REQUESTED:          0  ISSUED:          0  USEFUL:          0  USELESS:          0
cpu0_L1D AVERAGE MISS LATENCY: 45.6406 cycles
cpu0_L2C TOTAL     ACCESS:    1931894  HIT:    1587836  MISS:     344058
cpu0_L2C LOAD      ACCESS:    1311385  HIT:    1190968  MISS:     120417
cpu0_L2C RFO       ACCESS:     246198  HIT:      23133  MISS:     223065
cpu0_L2C PREFETCH  ACCESS:          0  HIT:          0  MISS:          0
cpu0_L2C WRITEBACK ACCESS:     359335  HIT:     358857  MISS:        478
cpu0_L2C TRANSLATION ACCESS:      14976  HIT:      14878  MISS:         98
cpu0_L2C PREFETCH  REQUESTED:          0  ISSUED:          0  USEFUL:          0  USELESS:          0
cpu0_L2C AVERAGE MISS LATENCY: 148.991 cycles
LLC TOTAL     ACCESS:     632842  HIT:     230029  MISS:     402813
LLC LOAD      ACCESS:     120416  HIT:      69114  MISS:      51302
LLC RFO       ACCESS:     223065  HIT:      32472  MISS:     190593
LLC PREFETCH  ACCESS:          0  HIT:          0  MISS:          0
LLC WRITEBACK ACCESS:     289263  HIT:     128381  MISS:     160882
LLC TRANSLATION ACCESS:         98  HIT:         62  MISS:         36
LLC PREFETCH  REQUESTED:          0  ISSUED:          0  USEFUL:          0  USELESS:          0
LLC AVERAGE MISS LATENCY: 109.347 cycles
Insertion Distribution: 
	LOAD 15742 0 33061 15304 
	RFO 11946 0 27743 163795 
	PREF 0 0 0 0 
	WRITEBACK 0 0 0 160888 
	 16 0 55 1 
Total Prefetch Downgrades: 0

DRAM Statistics
 CHANNEL 0
 RQ ROW_BUFFER_HIT:      99198  ROW_BUFFER_MISS:     142727
 DBUS AVG_CONGESTED_CYCLE:    3.94643
 WQ ROW_BUFFER_HIT:      18029  ROW_BUFFER_MISS:     192162  FULL:          0


CPU 0 Branch Prediction Accuracy: 96.4988% MPKI: 10.3974 Average ROB Occupancy at Mispredict: 40.2957
Branch type MPKI
BRANCH_DIRECT_JUMP: 0.0002
BRANCH_INDIRECT: 0.35495
BRANCH_CONDITIONAL: 7.96079
BRANCH_DIRECT_CALL: 9e-05
BRANCH_INDIRECT_CALL: 0.45393
BRANCH_RETURN: 1.62746

