
*** ChampSim Multicore Out-of-Order Simulator ***

Warmup Instructions: 10000000
Simulation Instructions: 100000000
Number of CPUs: 1
Off-chip DRAM Size: 4 GiB Channels: 1 Width: 64-bit Data Rate: 3200 MT/s

VirtualMemory physical capacity: 8588881920 num_ppages: 2096895
VirtualMemory page size: 4096 log2_page_size: 12

CPU 0 runs /datasets/cs240c-wi22-a00-public/data/Assignment2/bzip2_183B.trace.xz
CPU 0 Bimodal branch predictor
Basic BTB sets: 1024 ways: 8 indirect buffer size: 4096 RAS size: 64
Initialize SRRIP state
Heartbeat CPU 0 instructions: 10000000 cycles: 3166435 heartbeat IPC: 3.15813 cumulative IPC: 3.15813 (Simulation time: 0 hr 0 min 44 sec) 

Warmup complete CPU 0 instructions: 10000005 cycles: 3166437 (Simulation time: 0 hr 0 min 44 sec) 

Heartbeat CPU 0 instructions: 20000000 cycles: 10304762 heartbeat IPC: 1.40089 cumulative IPC: 1.40089 (Simulation time: 0 hr 1 min 27 sec) 
Heartbeat CPU 0 instructions: 30000001 cycles: 17827234 heartbeat IPC: 1.32935 cumulative IPC: 1.36418 (Simulation time: 0 hr 2 min 6 sec) 
Heartbeat CPU 0 instructions: 40000002 cycles: 25214044 heartbeat IPC: 1.35376 cumulative IPC: 1.36069 (Simulation time: 0 hr 2 min 46 sec) 
Heartbeat CPU 0 instructions: 50000001 cycles: 33038084 heartbeat IPC: 1.27811 cumulative IPC: 1.33906 (Simulation time: 0 hr 3 min 27 sec) 
Heartbeat CPU 0 instructions: 60000004 cycles: 40650018 heartbeat IPC: 1.31373 cumulative IPC: 1.33392 (Simulation time: 0 hr 4 min 7 sec) 
Heartbeat CPU 0 instructions: 70000002 cycles: 49343903 heartbeat IPC: 1.15023 cumulative IPC: 1.29934 (Simulation time: 0 hr 4 min 48 sec) 
Heartbeat CPU 0 instructions: 80000000 cycles: 57331954 heartbeat IPC: 1.25187 cumulative IPC: 1.29234 (Simulation time: 0 hr 5 min 26 sec) 
Heartbeat CPU 0 instructions: 90000002 cycles: 65659732 heartbeat IPC: 1.2008 cumulative IPC: 1.28014 (Simulation time: 0 hr 6 min 10 sec) 
Heartbeat CPU 0 instructions: 100000002 cycles: 74868046 heartbeat IPC: 1.08598 cumulative IPC: 1.2552 (Simulation time: 0 hr 6 min 51 sec) 
Heartbeat CPU 0 instructions: 110000003 cycles: 84017955 heartbeat IPC: 1.09291 cumulative IPC: 1.23684 (Simulation time: 0 hr 7 min 32 sec) 
Finished CPU 0 instructions: 100000003 cycles: 80851519 cumulative IPC: 1.23684 (Simulation time: 0 hr 7 min 32 sec) 

ChampSim completed all CPUs

Region of Interest Statistics

CPU 0 cumulative IPC: 1.23684 instructions: 100000003 cycles: 80851519
cpu0_DTLB TOTAL     ACCESS:   21898185  HIT:   21441981  MISS:     456204
cpu0_DTLB LOAD      ACCESS:   17506806  HIT:   17191878  MISS:     314928
cpu0_DTLB RFO       ACCESS:    4391379  HIT:    4250103  MISS:     141276
cpu0_DTLB PREFETCH  ACCESS:          0  HIT:          0  MISS:          0
cpu0_DTLB WRITEBACK ACCESS:          0  HIT:          0  MISS:          0
cpu0_DTLB TRANSLATION ACCESS:          0  HIT:          0  MISS:          0
cpu0_DTLB PREFETCH  REQUESTED:          0  ISSUED:          0  USEFUL:          0  USELESS:          0
cpu0_DTLB AVERAGE MISS LATENCY: 9.24859 cycles
cpu0_ITLB TOTAL     ACCESS:   10069749  HIT:   10069749  MISS:          0
cpu0_ITLB LOAD      ACCESS:   10069749  HIT:   10069749  MISS:          0
cpu0_ITLB RFO       ACCESS:          0  HIT:          0  MISS:          0
cpu0_ITLB PREFETCH  ACCESS:          0  HIT:          0  MISS:          0
cpu0_ITLB WRITEBACK ACCESS:          0  HIT:          0  MISS:          0
cpu0_ITLB TRANSLATION ACCESS:          0  HIT:          0  MISS:          0
cpu0_ITLB PREFETCH  REQUESTED:          0  ISSUED:          0  USEFUL:          0  USELESS:          0
cpu0_ITLB AVERAGE MISS LATENCY: -nan cycles
cpu0_L1I TOTAL     ACCESS:      41319  HIT:      41318  MISS:          1
cpu0_L1I LOAD      ACCESS:      41319  HIT:      41318  MISS:          1
cpu0_L1I RFO       ACCESS:          0  HIT:          0  MISS:          0
cpu0_L1I PREFETCH  ACCESS:          0  HIT:          0  MISS:          0
cpu0_L1I WRITEBACK ACCESS:          0  HIT:          0  MISS:          0
cpu0_L1I TRANSLATION ACCESS:          0  HIT:          0  MISS:          0
cpu0_L1I PREFETCH  REQUESTED:          0  ISSUED:          0  USEFUL:          0  USELESS:          0
cpu0_L1I AVERAGE MISS LATENCY: 194 cycles
cpu0_STLB TOTAL     ACCESS:     456204  HIT:     455811  MISS:        393
cpu0_STLB LOAD      ACCESS:     314928  HIT:     314787  MISS:        141
cpu0_STLB RFO       ACCESS:     141276  HIT:     141024  MISS:        252
cpu0_STLB PREFETCH  ACCESS:          0  HIT:          0  MISS:          0
cpu0_STLB WRITEBACK ACCESS:          0  HIT:          0  MISS:          0
cpu0_STLB TRANSLATION ACCESS:          0  HIT:          0  MISS:          0
cpu0_STLB PREFETCH  REQUESTED:          0  ISSUED:          0  USEFUL:          0  USELESS:          0
cpu0_STLB AVERAGE MISS LATENCY: 204.468 cycles
cpu0_L1D TOTAL     ACCESS:   20753747  HIT:   19344672  MISS:    1409075
cpu0_L1D LOAD      ACCESS:   14095381  HIT:   13040030  MISS:    1055351
cpu0_L1D RFO       ACCESS:    6657994  HIT:    6304465  MISS:     353529
cpu0_L1D PREFETCH  ACCESS:          0  HIT:          0  MISS:          0
cpu0_L1D WRITEBACK ACCESS:          0  HIT:          0  MISS:          0
cpu0_L1D TRANSLATION ACCESS:        372  HIT:        177  MISS:        195
cpu0_L1D PREFETCH  REQUESTED:          0  ISSUED:          0  USEFUL:          0  USELESS:          0
cpu0_L1D AVERAGE MISS LATENCY: 79.6911 cycles
cpu0_L2C TOTAL     ACCESS:    1811283  HIT:    1198045  MISS:     613238
cpu0_L2C LOAD      ACCESS:    1055335  HIT:     692823  MISS:     362512
cpu0_L2C RFO       ACCESS:     353482  HIT:     102860  MISS:     250622
cpu0_L2C PREFETCH  ACCESS:          0  HIT:          0  MISS:          0
cpu0_L2C WRITEBACK ACCESS:     402271  HIT:     402199  MISS:         72
cpu0_L2C TRANSLATION ACCESS:        195  HIT:        163  MISS:         32
cpu0_L2C PREFETCH  REQUESTED:          0  ISSUED:          0  USEFUL:          0  USELESS:          0
cpu0_L2C AVERAGE MISS LATENCY: 157.699 cycles
LLC TOTAL     ACCESS:     901940  HIT:     745611  MISS:     156329
LLC LOAD      ACCESS:     362510  HIT:     299640  MISS:      62870
LLC RFO       ACCESS:     250599  HIT:     182364  MISS:      68235
LLC PREFETCH  ACCESS:          0  HIT:          0  MISS:          0
LLC WRITEBACK ACCESS:     288799  HIT:     263576  MISS:      25223
LLC TRANSLATION ACCESS:         32  HIT:         31  MISS:          1
LLC PREFETCH  REQUESTED:          0  ISSUED:          0  USEFUL:          0  USELESS:          0
LLC AVERAGE MISS LATENCY: 536.226 cycles
Insertion Distribution: 
	LOAD 39137 0 0 0 0 30954 10646 
	RFO 23356 0 0 0 0 38111 19766 
	PREF 0 0 0 0 0 0 0 
	WRITEBACK 0 0 0 0 0 0 25295 
	 0 0 0 0 0 12 0 
Total Prefetch Downgrades: 0

DRAM Statistics
 CHANNEL 0
 RQ ROW_BUFFER_HIT:       8057  ROW_BUFFER_MISS:     122284
 DBUS AVG_CONGESTED_CYCLE:    3.97549
 WQ ROW_BUFFER_HIT:       7111  ROW_BUFFER_MISS:      85482  FULL:          0


CPU 0 Branch Prediction Accuracy: 89.4501% MPKI: 18.6246 Average ROB Occupancy at Mispredict: 32.4918
Branch type MPKI
BRANCH_DIRECT_JUMP: 3e-05
BRANCH_INDIRECT: 0
BRANCH_CONDITIONAL: 18.6246
BRANCH_DIRECT_CALL: 0
BRANCH_INDIRECT_CALL: 0
BRANCH_RETURN: 0

