
*** ChampSim Multicore Out-of-Order Simulator ***

Warmup Instructions: 10000000
Simulation Instructions: 100000000
Number of CPUs: 1
Off-chip DRAM Size: 4 GiB Channels: 1 Width: 64-bit Data Rate: 3200 MT/s

VirtualMemory physical capacity: 8588881920 num_ppages: 2096895
VirtualMemory page size: 4096 log2_page_size: 12

CPU 0 runs /datasets/cs240c-wi22-a00-public/data/Assignment2/bzip2_281B.trace.xz
CPU 0 Bimodal branch predictor
Basic BTB sets: 1024 ways: 8 indirect buffer size: 4096 RAS size: 64
Initialize SRRIP state
Heartbeat CPU 0 instructions: 10000004 cycles: 3227492 heartbeat IPC: 3.09838 cumulative IPC: 3.09838 (Simulation time: 0 hr 0 min 47 sec) 

Warmup complete CPU 0 instructions: 10000004 cycles: 3227492 (Simulation time: 0 hr 0 min 47 sec) 

Heartbeat CPU 0 instructions: 20000000 cycles: 13823743 heartbeat IPC: 0.94373 cumulative IPC: 0.94373 (Simulation time: 0 hr 1 min 42 sec) 
Heartbeat CPU 0 instructions: 30000001 cycles: 25470562 heartbeat IPC: 0.858604 cumulative IPC: 0.899156 (Simulation time: 0 hr 2 min 59 sec) 
Heartbeat CPU 0 instructions: 40000002 cycles: 30021542 heartbeat IPC: 2.19733 cumulative IPC: 1.11965 (Simulation time: 0 hr 3 min 34 sec) 
Heartbeat CPU 0 instructions: 50000002 cycles: 34932664 heartbeat IPC: 2.03619 cumulative IPC: 1.26162 (Simulation time: 0 hr 4 min 11 sec) 
Heartbeat CPU 0 instructions: 60000000 cycles: 40082371 heartbeat IPC: 1.94186 cumulative IPC: 1.35667 (Simulation time: 0 hr 4 min 54 sec) 
Heartbeat CPU 0 instructions: 70000004 cycles: 47606668 heartbeat IPC: 1.32903 cumulative IPC: 1.35199 (Simulation time: 0 hr 6 min 1 sec) 
Heartbeat CPU 0 instructions: 80000003 cycles: 55253385 heartbeat IPC: 1.30775 cumulative IPC: 1.34548 (Simulation time: 0 hr 6 min 58 sec) 
Heartbeat CPU 0 instructions: 90000003 cycles: 61651818 heartbeat IPC: 1.56288 cumulative IPC: 1.36929 (Simulation time: 0 hr 7 min 39 sec) 
Heartbeat CPU 0 instructions: 100000001 cycles: 68315199 heartbeat IPC: 1.50074 cumulative IPC: 1.38275 (Simulation time: 0 hr 8 min 23 sec) 
Heartbeat CPU 0 instructions: 110000000 cycles: 75064519 heartbeat IPC: 1.48163 cumulative IPC: 1.39204 (Simulation time: 0 hr 9 min 7 sec) 
Finished CPU 0 instructions: 100000000 cycles: 71837029 cumulative IPC: 1.39204 (Simulation time: 0 hr 9 min 7 sec) 

ChampSim completed all CPUs

Region of Interest Statistics

CPU 0 cumulative IPC: 1.39204 instructions: 100000000 cycles: 71837029
cpu0_DTLB TOTAL     ACCESS:   19659695  HIT:   18901051  MISS:     758644
cpu0_DTLB LOAD      ACCESS:   13800840  HIT:   13155153  MISS:     645687
cpu0_DTLB RFO       ACCESS:    5858855  HIT:    5745898  MISS:     112957
cpu0_DTLB PREFETCH  ACCESS:          0  HIT:          0  MISS:          0
cpu0_DTLB WRITEBACK ACCESS:          0  HIT:          0  MISS:          0
cpu0_DTLB TRANSLATION ACCESS:          0  HIT:          0  MISS:          0
cpu0_DTLB PREFETCH  REQUESTED:          0  ISSUED:          0  USEFUL:          0  USELESS:          0
cpu0_DTLB AVERAGE MISS LATENCY: 9.33011 cycles
cpu0_ITLB TOTAL     ACCESS:    6429843  HIT:    6429829  MISS:         14
cpu0_ITLB LOAD      ACCESS:    6429843  HIT:    6429829  MISS:         14
cpu0_ITLB RFO       ACCESS:          0  HIT:          0  MISS:          0
cpu0_ITLB PREFETCH  ACCESS:          0  HIT:          0  MISS:          0
cpu0_ITLB WRITEBACK ACCESS:          0  HIT:          0  MISS:          0
cpu0_ITLB TRANSLATION ACCESS:          0  HIT:          0  MISS:          0
cpu0_ITLB PREFETCH  REQUESTED:          0  ISSUED:          0  USEFUL:          0  USELESS:          0
cpu0_ITLB AVERAGE MISS LATENCY: 222.429 cycles
cpu0_L1I TOTAL     ACCESS:    2685696  HIT:    2685342  MISS:        354
cpu0_L1I LOAD      ACCESS:    2685696  HIT:    2685342  MISS:        354
cpu0_L1I RFO       ACCESS:          0  HIT:          0  MISS:          0
cpu0_L1I PREFETCH  ACCESS:          0  HIT:          0  MISS:          0
cpu0_L1I WRITEBACK ACCESS:          0  HIT:          0  MISS:          0
cpu0_L1I TRANSLATION ACCESS:          0  HIT:          0  MISS:          0
cpu0_L1I PREFETCH  REQUESTED:          0  ISSUED:          0  USEFUL:          0  USELESS:          0
cpu0_L1I AVERAGE MISS LATENCY: 183 cycles
cpu0_STLB TOTAL     ACCESS:     758658  HIT:     757576  MISS:       1082
cpu0_STLB LOAD      ACCESS:     645701  HIT:     644794  MISS:        907
cpu0_STLB RFO       ACCESS:     112957  HIT:     112782  MISS:        175
cpu0_STLB PREFETCH  ACCESS:          0  HIT:          0  MISS:          0
cpu0_STLB WRITEBACK ACCESS:          0  HIT:          0  MISS:          0
cpu0_STLB TRANSLATION ACCESS:          0  HIT:          0  MISS:          0
cpu0_STLB PREFETCH  REQUESTED:          0  ISSUED:          0  USEFUL:          0  USELESS:          0
cpu0_STLB AVERAGE MISS LATENCY: 203.419 cycles
cpu0_L1D TOTAL     ACCESS:   23589699  HIT:   21990618  MISS:    1599081
cpu0_L1D LOAD      ACCESS:   13824314  HIT:   12431337  MISS:    1392977
cpu0_L1D RFO       ACCESS:    9764316  HIT:    9558717  MISS:     205599
cpu0_L1D PREFETCH  ACCESS:          0  HIT:          0  MISS:          0
cpu0_L1D WRITEBACK ACCESS:          0  HIT:          0  MISS:          0
cpu0_L1D TRANSLATION ACCESS:       1069  HIT:        564  MISS:        505
cpu0_L1D PREFETCH  REQUESTED:          0  ISSUED:          0  USEFUL:          0  USELESS:          0
cpu0_L1D AVERAGE MISS LATENCY: 87.4532 cycles
cpu0_L2C TOTAL     ACCESS:    1813746  HIT:     911829  MISS:     901917
cpu0_L2C LOAD      ACCESS:    1393327  HIT:     649131  MISS:     744196
cpu0_L2C RFO       ACCESS:     205590  HIT:      48095  MISS:     157495
cpu0_L2C PREFETCH  ACCESS:          0  HIT:          0  MISS:          0
cpu0_L2C WRITEBACK ACCESS:     214324  HIT:     214128  MISS:        196
cpu0_L2C TRANSLATION ACCESS:        505  HIT:        475  MISS:         30
cpu0_L2C PREFETCH  REQUESTED:          0  ISSUED:          0  USEFUL:          0  USELESS:          0
cpu0_L2C AVERAGE MISS LATENCY: 135.482 cycles
LLC TOTAL     ACCESS:    1060156  HIT:     821761  MISS:     238395
LLC LOAD      ACCESS:     744195  HIT:     623029  MISS:     121166
LLC RFO       ACCESS:     157483  HIT:      81691  MISS:      75792
LLC PREFETCH  ACCESS:          0  HIT:          0  MISS:          0
LLC WRITEBACK ACCESS:     158448  HIT:     117016  MISS:      41432
LLC TRANSLATION ACCESS:         30  HIT:         25  MISS:          5
LLC PREFETCH  REQUESTED:          0  ISSUED:          0  USEFUL:          0  USELESS:          0
LLC AVERAGE MISS LATENCY: 433.124 cycles
Insertion Distribution: 
	LOAD 29219 0 0 0 0 34326 79433 
	RFO 10057 0 0 0 0 46700 36729 
	PREF 0 0 0 0 0 0 0 
	WRITEBACK 0 0 0 0 0 0 42104 
	 0 0 0 0 0 16 0 
Total Prefetch Downgrades: 0

DRAM Statistics
 CHANNEL 0
 RQ ROW_BUFFER_HIT:      59011  ROW_BUFFER_MISS:     137519
 DBUS AVG_CONGESTED_CYCLE:    3.98585
 WQ ROW_BUFFER_HIT:       4741  ROW_BUFFER_MISS:      83270  FULL:       1112


CPU 0 Branch Prediction Accuracy: 91.2056% MPKI: 12.1715 Average ROB Occupancy at Mispredict: 68.2918
Branch type MPKI
BRANCH_DIRECT_JUMP: 0.00059
BRANCH_INDIRECT: 0
BRANCH_CONDITIONAL: 12.1706
BRANCH_DIRECT_CALL: 0.00014
BRANCH_INDIRECT_CALL: 0
BRANCH_RETURN: 0.00019

