
*** ChampSim Multicore Out-of-Order Simulator ***

Warmup Instructions: 10000000
Simulation Instructions: 100000000
Number of CPUs: 1
Off-chip DRAM Size: 4 GiB Channels: 1 Width: 64-bit Data Rate: 3200 MT/s

VirtualMemory physical capacity: 8588881920 num_ppages: 2096895
VirtualMemory page size: 4096 log2_page_size: 12

CPU 0 runs /datasets/cs240c-wi22-a00-public/data/Assignment2/GemsFDTD_712B.trace.xz
CPU 0 Bimodal branch predictor
Basic BTB sets: 1024 ways: 8 indirect buffer size: 4096 RAS size: 64
Initialize SRRIP state
Heartbeat CPU 0 instructions: 10000003 cycles: 4479620 heartbeat IPC: 2.23233 cumulative IPC: 2.23233 (Simulation time: 0 hr 1 min 15 sec) 

Warmup complete CPU 0 instructions: 10000003 cycles: 4479620 (Simulation time: 0 hr 1 min 15 sec) 

Heartbeat CPU 0 instructions: 20000000 cycles: 44273591 heartbeat IPC: 0.251294 cumulative IPC: 0.251294 (Simulation time: 0 hr 6 min 4 sec) 
Heartbeat CPU 0 instructions: 30000001 cycles: 83980923 heartbeat IPC: 0.251843 cumulative IPC: 0.251568 (Simulation time: 0 hr 10 min 57 sec) 
Heartbeat CPU 0 instructions: 40000003 cycles: 123870890 heartbeat IPC: 0.25069 cumulative IPC: 0.251275 (Simulation time: 0 hr 15 min 49 sec) 
Heartbeat CPU 0 instructions: 50000004 cycles: 163706287 heartbeat IPC: 0.251033 cumulative IPC: 0.251214 (Simulation time: 0 hr 20 min 41 sec) 
Heartbeat CPU 0 instructions: 60000003 cycles: 203407581 heartbeat IPC: 0.251881 cumulative IPC: 0.251347 (Simulation time: 0 hr 25 min 31 sec) 
Heartbeat CPU 0 instructions: 70000002 cycles: 243235088 heartbeat IPC: 0.251083 cumulative IPC: 0.251303 (Simulation time: 0 hr 30 min 19 sec) 
Heartbeat CPU 0 instructions: 80000000 cycles: 277951836 heartbeat IPC: 0.288045 cumulative IPC: 0.255967 (Simulation time: 0 hr 33 min 42 sec) 
Heartbeat CPU 0 instructions: 90000000 cycles: 312684809 heartbeat IPC: 0.287911 cumulative IPC: 0.259567 (Simulation time: 0 hr 36 min 53 sec) 
Heartbeat CPU 0 instructions: 100000001 cycles: 347433589 heartbeat IPC: 0.28778 cumulative IPC: 0.262426 (Simulation time: 0 hr 40 min 6 sec) 
Heartbeat CPU 0 instructions: 110000002 cycles: 382003461 heartbeat IPC: 0.289269 cumulative IPC: 0.264884 (Simulation time: 0 hr 43 min 21 sec) 
Finished CPU 0 instructions: 100000004 cycles: 377523842 cumulative IPC: 0.264884 (Simulation time: 0 hr 43 min 21 sec) 

ChampSim completed all CPUs

Region of Interest Statistics

CPU 0 cumulative IPC: 0.264884 instructions: 100000004 cycles: 377523842
cpu0_DTLB TOTAL     ACCESS:   29847071  HIT:   29644425  MISS:     202646
cpu0_DTLB LOAD      ACCESS:   23904891  HIT:   23702245  MISS:     202646
cpu0_DTLB RFO       ACCESS:    5942180  HIT:    5942180  MISS:          0
cpu0_DTLB PREFETCH  ACCESS:          0  HIT:          0  MISS:          0
cpu0_DTLB WRITEBACK ACCESS:          0  HIT:          0  MISS:          0
cpu0_DTLB TRANSLATION ACCESS:          0  HIT:          0  MISS:          0
cpu0_DTLB PREFETCH  REQUESTED:          0  ISSUED:          0  USEFUL:          0  USELESS:          0
cpu0_DTLB AVERAGE MISS LATENCY: 158.158 cycles
cpu0_ITLB TOTAL     ACCESS:    1686076  HIT:    1686070  MISS:          6
cpu0_ITLB LOAD      ACCESS:    1686076  HIT:    1686070  MISS:          6
cpu0_ITLB RFO       ACCESS:          0  HIT:          0  MISS:          0
cpu0_ITLB PREFETCH  ACCESS:          0  HIT:          0  MISS:          0
cpu0_ITLB WRITEBACK ACCESS:          0  HIT:          0  MISS:          0
cpu0_ITLB TRANSLATION ACCESS:          0  HIT:          0  MISS:          0
cpu0_ITLB PREFETCH  REQUESTED:          0  ISSUED:          0  USEFUL:          0  USELESS:          0
cpu0_ITLB AVERAGE MISS LATENCY: 336 cycles
cpu0_L1I TOTAL     ACCESS:    3165640  HIT:    3165545  MISS:         95
cpu0_L1I LOAD      ACCESS:    3165640  HIT:    3165545  MISS:         95
cpu0_L1I RFO       ACCESS:          0  HIT:          0  MISS:          0
cpu0_L1I PREFETCH  ACCESS:          0  HIT:          0  MISS:          0
cpu0_L1I WRITEBACK ACCESS:          0  HIT:          0  MISS:          0
cpu0_L1I TRANSLATION ACCESS:          0  HIT:          0  MISS:          0
cpu0_L1I PREFETCH  REQUESTED:          0  ISSUED:          0  USEFUL:          0  USELESS:          0
cpu0_L1I AVERAGE MISS LATENCY: 419.305 cycles
cpu0_STLB TOTAL     ACCESS:     202652  HIT:      49544  MISS:     153108
cpu0_STLB LOAD      ACCESS:     202652  HIT:      49544  MISS:     153108
cpu0_STLB RFO       ACCESS:          0  HIT:          0  MISS:          0
cpu0_STLB PREFETCH  ACCESS:          0  HIT:          0  MISS:          0
cpu0_STLB WRITEBACK ACCESS:          0  HIT:          0  MISS:          0
cpu0_STLB TRANSLATION ACCESS:          0  HIT:          0  MISS:          0
cpu0_STLB PREFETCH  REQUESTED:          0  ISSUED:          0  USEFUL:          0  USELESS:          0
cpu0_STLB AVERAGE MISS LATENCY: 197.364 cycles
cpu0_L1D TOTAL     ACCESS:   29705149  HIT:   26357092  MISS:    3348057
cpu0_L1D LOAD      ACCESS:   18473213  HIT:   15127357  MISS:    3345856
cpu0_L1D RFO       ACCESS:   11079385  HIT:   11079365  MISS:         20
cpu0_L1D PREFETCH  ACCESS:          0  HIT:          0  MISS:          0
cpu0_L1D WRITEBACK ACCESS:          0  HIT:          0  MISS:          0
cpu0_L1D TRANSLATION ACCESS:     152551  HIT:     150370  MISS:       2181
cpu0_L1D PREFETCH  REQUESTED:          0  ISSUED:          0  USEFUL:          0  USELESS:          0
cpu0_L1D AVERAGE MISS LATENCY: 687.108 cycles
cpu0_L2C TOTAL     ACCESS:    4725123  HIT:    1561835  MISS:    3163288
cpu0_L2C LOAD      ACCESS:    3345951  HIT:     182773  MISS:    3163178
cpu0_L2C RFO       ACCESS:         20  HIT:          0  MISS:         20
cpu0_L2C PREFETCH  ACCESS:          0  HIT:          0  MISS:          0
cpu0_L2C WRITEBACK ACCESS:    1376971  HIT:    1376967  MISS:          4
cpu0_L2C TRANSLATION ACCESS:       2181  HIT:       2095  MISS:         86
cpu0_L2C PREFETCH  REQUESTED:          0  ISSUED:          0  USEFUL:          0  USELESS:          0
cpu0_L2C AVERAGE MISS LATENCY: 715.588 cycles
LLC TOTAL     ACCESS:    4538792  HIT:     537078  MISS:    4001714
LLC LOAD      ACCESS:    3163178  HIT:     530152  MISS:    2633026
LLC RFO       ACCESS:         20  HIT:          0  MISS:         20
LLC PREFETCH  ACCESS:          0  HIT:          0  MISS:          0
LLC WRITEBACK ACCESS:    1375508  HIT:       6901  MISS:    1368607
LLC TRANSLATION ACCESS:         86  HIT:         25  MISS:         61
LLC PREFETCH  REQUESTED:          0  ISSUED:          0  USEFUL:          0  USELESS:          0
LLC AVERAGE MISS LATENCY: 549.06 cycles
Insertion Distribution: 
	LOAD 609298 0 0 0 0 90813 2250155 
	RFO 0 0 0 0 0 20 0 
	PREF 0 0 0 0 0 0 0 
	WRITEBACK 0 0 0 0 0 0 1495550 
	 19 0 0 0 0 25 34 
Total Prefetch Downgrades: 0

DRAM Statistics
 CHANNEL 0
 RQ ROW_BUFFER_HIT:       8010  ROW_BUFFER_MISS:    2625097
 DBUS AVG_CONGESTED_CYCLE:    3.99776
 WQ ROW_BUFFER_HIT:      22472  ROW_BUFFER_MISS:    1350306  FULL:          0


CPU 0 Branch Prediction Accuracy: 90.9863% MPKI: 1.62566 Average ROB Occupancy at Mispredict: 227.441
Branch type MPKI
BRANCH_DIRECT_JUMP: 5e-05
BRANCH_INDIRECT: 0
BRANCH_CONDITIONAL: 1.62559
BRANCH_DIRECT_CALL: 1e-05
BRANCH_INDIRECT_CALL: 0
BRANCH_RETURN: 1e-05

