
*** ChampSim Multicore Out-of-Order Simulator ***

Warmup Instructions: 10000000
Simulation Instructions: 100000000
Number of CPUs: 1
Off-chip DRAM Size: 4 GiB Channels: 1 Width: 64-bit Data Rate: 3200 MT/s

VirtualMemory physical capacity: 8588881920 num_ppages: 2096895
VirtualMemory page size: 4096 log2_page_size: 12

CPU 0 runs /datasets/cs240c-wi22-a00-public/data/Assignment2/hmmer_7B.trace.xz
CPU 0 Bimodal branch predictor
Basic BTB sets: 1024 ways: 8 indirect buffer size: 4096 RAS size: 64
Initialize SRRIP state
Heartbeat CPU 0 instructions: 10000004 cycles: 3986065 heartbeat IPC: 2.50874 cumulative IPC: 2.50874 (Simulation time: 0 hr 1 min 0 sec) 

Warmup complete CPU 0 instructions: 10000004 cycles: 3986065 (Simulation time: 0 hr 1 min 0 sec) 

Heartbeat CPU 0 instructions: 20000004 cycles: 9224794 heartbeat IPC: 1.90886 cumulative IPC: 1.90886 (Simulation time: 0 hr 2 min 26 sec) 
Heartbeat CPU 0 instructions: 30000001 cycles: 13952415 heartbeat IPC: 2.11523 cumulative IPC: 2.00675 (Simulation time: 0 hr 3 min 48 sec) 
Heartbeat CPU 0 instructions: 40000001 cycles: 18471738 heartbeat IPC: 2.21272 cumulative IPC: 2.07101 (Simulation time: 0 hr 5 min 10 sec) 
Heartbeat CPU 0 instructions: 50000000 cycles: 23637288 heartbeat IPC: 1.9359 cumulative IPC: 2.0355 (Simulation time: 0 hr 6 min 34 sec) 
Heartbeat CPU 0 instructions: 60000000 cycles: 27962946 heartbeat IPC: 2.31179 cumulative IPC: 2.08534 (Simulation time: 0 hr 7 min 54 sec) 
Heartbeat CPU 0 instructions: 70000003 cycles: 32285105 heartbeat IPC: 2.31366 cumulative IPC: 2.12021 (Simulation time: 0 hr 9 min 15 sec) 
Heartbeat CPU 0 instructions: 80000001 cycles: 36594822 heartbeat IPC: 2.32034 cumulative IPC: 2.14666 (Simulation time: 0 hr 10 min 36 sec) 
Heartbeat CPU 0 instructions: 90000004 cycles: 40914267 heartbeat IPC: 2.31511 cumulative IPC: 2.16637 (Simulation time: 0 hr 11 min 56 sec) 
Heartbeat CPU 0 instructions: 100000002 cycles: 45233331 heartbeat IPC: 2.31532 cumulative IPC: 2.18196 (Simulation time: 0 hr 13 min 16 sec) 
Heartbeat CPU 0 instructions: 110000001 cycles: 49560290 heartbeat IPC: 2.31109 cumulative IPC: 2.19422 (Simulation time: 0 hr 14 min 38 sec) 
Finished CPU 0 instructions: 100000002 cycles: 45574226 cumulative IPC: 2.19422 (Simulation time: 0 hr 14 min 38 sec) 

ChampSim completed all CPUs

Region of Interest Statistics

CPU 0 cumulative IPC: 2.19422 instructions: 100000002 cycles: 45574226
cpu0_DTLB TOTAL     ACCESS:   40544278  HIT:   40530125  MISS:      14153
cpu0_DTLB LOAD      ACCESS:   32389403  HIT:   32381689  MISS:       7714
cpu0_DTLB RFO       ACCESS:    8154875  HIT:    8148436  MISS:       6439
cpu0_DTLB PREFETCH  ACCESS:          0  HIT:          0  MISS:          0
cpu0_DTLB WRITEBACK ACCESS:          0  HIT:          0  MISS:          0
cpu0_DTLB TRANSLATION ACCESS:          0  HIT:          0  MISS:          0
cpu0_DTLB PREFETCH  REQUESTED:          0  ISSUED:          0  USEFUL:          0  USELESS:          0
cpu0_DTLB AVERAGE MISS LATENCY: 14.2747 cycles
cpu0_ITLB TOTAL     ACCESS:     799348  HIT:     799276  MISS:         72
cpu0_ITLB LOAD      ACCESS:     799348  HIT:     799276  MISS:         72
cpu0_ITLB RFO       ACCESS:          0  HIT:          0  MISS:          0
cpu0_ITLB PREFETCH  ACCESS:          0  HIT:          0  MISS:          0
cpu0_ITLB WRITEBACK ACCESS:          0  HIT:          0  MISS:          0
cpu0_ITLB TRANSLATION ACCESS:          0  HIT:          0  MISS:          0
cpu0_ITLB PREFETCH  REQUESTED:          0  ISSUED:          0  USEFUL:          0  USELESS:          0
cpu0_ITLB AVERAGE MISS LATENCY: 21 cycles
cpu0_L1I TOTAL     ACCESS:      62168  HIT:      62063  MISS:        105
cpu0_L1I LOAD      ACCESS:      62168  HIT:      62063  MISS:        105
cpu0_L1I RFO       ACCESS:          0  HIT:          0  MISS:          0
cpu0_L1I PREFETCH  ACCESS:          0  HIT:          0  MISS:          0
cpu0_L1I WRITEBACK ACCESS:          0  HIT:          0  MISS:          0
cpu0_L1I TRANSLATION ACCESS:          0  HIT:          0  MISS:          0
cpu0_L1I PREFETCH  REQUESTED:          0  ISSUED:          0  USEFUL:          0  USELESS:          0
cpu0_L1I AVERAGE MISS LATENCY: 104.286 cycles
cpu0_STLB TOTAL     ACCESS:      14225  HIT:      13770  MISS:        455
cpu0_STLB LOAD      ACCESS:       7786  HIT:       7778  MISS:          8
cpu0_STLB RFO       ACCESS:       6439  HIT:       5992  MISS:        447
cpu0_STLB PREFETCH  ACCESS:          0  HIT:          0  MISS:          0
cpu0_STLB WRITEBACK ACCESS:          0  HIT:          0  MISS:          0
cpu0_STLB TRANSLATION ACCESS:          0  HIT:          0  MISS:          0
cpu0_STLB PREFETCH  REQUESTED:          0  ISSUED:          0  USEFUL:          0  USELESS:          0
cpu0_STLB AVERAGE MISS LATENCY: 165.767 cycles
cpu0_L1D TOTAL     ACCESS:   33516775  HIT:   33046650  MISS:     470125
cpu0_L1D LOAD      ACCESS:   28672091  HIT:   28510697  MISS:     161394
cpu0_L1D RFO       ACCESS:    4844230  HIT:    4535522  MISS:     308708
cpu0_L1D PREFETCH  ACCESS:          0  HIT:          0  MISS:          0
cpu0_L1D WRITEBACK ACCESS:          0  HIT:          0  MISS:          0
cpu0_L1D TRANSLATION ACCESS:        454  HIT:        431  MISS:         23
cpu0_L1D PREFETCH  REQUESTED:          0  ISSUED:          0  USEFUL:          0  USELESS:          0
cpu0_L1D AVERAGE MISS LATENCY: 232.381 cycles
cpu0_L2C TOTAL     ACCESS:     777389  HIT:     472464  MISS:     304925
cpu0_L2C LOAD      ACCESS:     161499  HIT:     149263  MISS:      12236
cpu0_L2C RFO       ACCESS:     308708  HIT:      16074  MISS:     292634
cpu0_L2C PREFETCH  ACCESS:          0  HIT:          0  MISS:          0
cpu0_L2C WRITEBACK ACCESS:     307159  HIT:     307112  MISS:         47
cpu0_L2C TRANSLATION ACCESS:         23  HIT:         15  MISS:          8
cpu0_L2C PREFETCH  REQUESTED:          0  ISSUED:          0  USEFUL:          0  USELESS:          0
cpu0_L2C AVERAGE MISS LATENCY: 341.338 cycles
LLC TOTAL     ACCESS:     596554  HIT:     450021  MISS:     146533
LLC LOAD      ACCESS:      12235  HIT:      10945  MISS:       1290
LLC RFO       ACCESS:     292633  HIT:     212498  MISS:      80135
LLC PREFETCH  ACCESS:          0  HIT:          0  MISS:          0
LLC WRITEBACK ACCESS:     291678  HIT:     226571  MISS:      65107
LLC TRANSLATION ACCESS:          8  HIT:          7  MISS:          1
LLC PREFETCH  REQUESTED:          0  ISSUED:          0  USEFUL:          0  USELESS:          0
LLC AVERAGE MISS LATENCY: 666.47 cycles
Insertion Distribution: 
	LOAD 520 0 0 0 0 3277 45 
	RFO 3042 0 0 0 0 30265 77547 
	PREF 0 0 0 0 0 0 0 
	WRITEBACK 0 0 0 0 0 0 65958 
	 0 0 0 0 0 13 0 
Total Prefetch Downgrades: 0

DRAM Statistics
 CHANNEL 0
 RQ ROW_BUFFER_HIT:       1472  ROW_BUFFER_MISS:      79952
 DBUS AVG_CONGESTED_CYCLE:    3.99364
 WQ ROW_BUFFER_HIT:       4240  ROW_BUFFER_MISS:      73003  FULL:      16894


CPU 0 Branch Prediction Accuracy: 98.9368% MPKI: 0.40856 Average ROB Occupancy at Mispredict: 252.338
Branch type MPKI
BRANCH_DIRECT_JUMP: 0.00016
BRANCH_INDIRECT: 0.00157
BRANCH_CONDITIONAL: 0.40659
BRANCH_DIRECT_CALL: 9e-05
BRANCH_INDIRECT_CALL: 3e-05
BRANCH_RETURN: 0.00012

