
*** ChampSim Multicore Out-of-Order Simulator ***

Warmup Instructions: 10000000
Simulation Instructions: 100000000
Number of CPUs: 1
Off-chip DRAM Size: 4 GiB Channels: 1 Width: 64-bit Data Rate: 3200 MT/s

VirtualMemory physical capacity: 8588881920 num_ppages: 2096895
VirtualMemory page size: 4096 log2_page_size: 12

CPU 0 runs /datasets/cs240c-wi22-a00-public/data/Assignment2/omnetpp_4B.trace.xz
CPU 0 Bimodal branch predictor
Basic BTB sets: 1024 ways: 8 indirect buffer size: 4096 RAS size: 64
Initialize SRRIP state
Heartbeat CPU 0 instructions: 10000002 cycles: 2526474 heartbeat IPC: 3.95809 cumulative IPC: 3.95809 (Simulation time: 0 hr 0 min 29 sec) 

Warmup complete CPU 0 instructions: 10000002 cycles: 2526474 (Simulation time: 0 hr 0 min 29 sec) 

Heartbeat CPU 0 instructions: 20000000 cycles: 9124699 heartbeat IPC: 1.51556 cumulative IPC: 1.51556 (Simulation time: 0 hr 1 min 9 sec) 
Heartbeat CPU 0 instructions: 30000001 cycles: 15749338 heartbeat IPC: 1.50952 cumulative IPC: 1.51253 (Simulation time: 0 hr 1 min 52 sec) 
Heartbeat CPU 0 instructions: 40000002 cycles: 22402288 heartbeat IPC: 1.50309 cumulative IPC: 1.50937 (Simulation time: 0 hr 2 min 35 sec) 
Heartbeat CPU 0 instructions: 50000000 cycles: 29151072 heartbeat IPC: 1.48175 cumulative IPC: 1.50237 (Simulation time: 0 hr 3 min 18 sec) 
Heartbeat CPU 0 instructions: 60000000 cycles: 35729662 heartbeat IPC: 1.52008 cumulative IPC: 1.50588 (Simulation time: 0 hr 3 min 59 sec) 
Heartbeat CPU 0 instructions: 70000000 cycles: 42285251 heartbeat IPC: 1.52542 cumulative IPC: 1.5091 (Simulation time: 0 hr 4 min 40 sec) 
Heartbeat CPU 0 instructions: 80000000 cycles: 48839719 heartbeat IPC: 1.52568 cumulative IPC: 1.51145 (Simulation time: 0 hr 5 min 22 sec) 
Heartbeat CPU 0 instructions: 90000000 cycles: 55728847 heartbeat IPC: 1.45156 cumulative IPC: 1.50369 (Simulation time: 0 hr 6 min 5 sec) 
Heartbeat CPU 0 instructions: 100000001 cycles: 62016375 heartbeat IPC: 1.59045 cumulative IPC: 1.51286 (Simulation time: 0 hr 6 min 43 sec) 
Heartbeat CPU 0 instructions: 110000002 cycles: 68691268 heartbeat IPC: 1.49815 cumulative IPC: 1.51138 (Simulation time: 0 hr 7 min 26 sec) 
Finished CPU 0 instructions: 100000000 cycles: 66164794 cumulative IPC: 1.51138 (Simulation time: 0 hr 7 min 26 sec) 

ChampSim completed all CPUs

Region of Interest Statistics

CPU 0 cumulative IPC: 1.51138 instructions: 100000000 cycles: 66164794
cpu0_DTLB TOTAL     ACCESS:   11672654  HIT:   10240794  MISS:    1431860
cpu0_DTLB LOAD      ACCESS:    9086206  HIT:    7655908  MISS:    1430298
cpu0_DTLB RFO       ACCESS:    2586448  HIT:    2584886  MISS:       1562
cpu0_DTLB PREFETCH  ACCESS:          0  HIT:          0  MISS:          0
cpu0_DTLB WRITEBACK ACCESS:          0  HIT:          0  MISS:          0
cpu0_DTLB TRANSLATION ACCESS:          0  HIT:          0  MISS:          0
cpu0_DTLB PREFETCH  REQUESTED:          0  ISSUED:          0  USEFUL:          0  USELESS:          0
cpu0_DTLB AVERAGE MISS LATENCY: 17.579 cycles
cpu0_ITLB TOTAL     ACCESS:    7987492  HIT:    7963325  MISS:      24167
cpu0_ITLB LOAD      ACCESS:    7987492  HIT:    7963325  MISS:      24167
cpu0_ITLB RFO       ACCESS:          0  HIT:          0  MISS:          0
cpu0_ITLB PREFETCH  ACCESS:          0  HIT:          0  MISS:          0
cpu0_ITLB WRITEBACK ACCESS:          0  HIT:          0  MISS:          0
cpu0_ITLB TRANSLATION ACCESS:          0  HIT:          0  MISS:          0
cpu0_ITLB PREFETCH  REQUESTED:          0  ISSUED:          0  USEFUL:          0  USELESS:          0
cpu0_ITLB AVERAGE MISS LATENCY: 10.8488 cycles
cpu0_L1I TOTAL     ACCESS:    1939409  HIT:    1876558  MISS:      62851
cpu0_L1I LOAD      ACCESS:    1939409  HIT:    1876558  MISS:      62851
cpu0_L1I RFO       ACCESS:          0  HIT:          0  MISS:          0
cpu0_L1I PREFETCH  ACCESS:          0  HIT:          0  MISS:          0
cpu0_L1I WRITEBACK ACCESS:          0  HIT:          0  MISS:          0
cpu0_L1I TRANSLATION ACCESS:          0  HIT:          0  MISS:          0
cpu0_L1I PREFETCH  REQUESTED:          0  ISSUED:          0  USEFUL:          0  USELESS:          0
cpu0_L1I AVERAGE MISS LATENCY: 44.8586 cycles
cpu0_STLB TOTAL     ACCESS:    1456027  HIT:      23478  MISS:    1432549
cpu0_STLB LOAD      ACCESS:    1454465  HIT:      22733  MISS:    1431732
cpu0_STLB RFO       ACCESS:       1562  HIT:        745  MISS:        817
cpu0_STLB PREFETCH  ACCESS:          0  HIT:          0  MISS:          0
cpu0_STLB WRITEBACK ACCESS:          0  HIT:          0  MISS:          0
cpu0_STLB TRANSLATION ACCESS:          0  HIT:          0  MISS:          0
cpu0_STLB PREFETCH  REQUESTED:          0  ISSUED:          0  USEFUL:          0  USELESS:          0
cpu0_STLB AVERAGE MISS LATENCY: 8.16323 cycles
cpu0_L1D TOTAL     ACCESS:   12507995  HIT:   10018099  MISS:    2489896
cpu0_L1D LOAD      ACCESS:    7249042  HIT:    4797849  MISS:    2451193
cpu0_L1D RFO       ACCESS:    4653236  HIT:    4615516  MISS:      37720
cpu0_L1D PREFETCH  ACCESS:          0  HIT:          0  MISS:          0
cpu0_L1D WRITEBACK ACCESS:          0  HIT:          0  MISS:          0
cpu0_L1D TRANSLATION ACCESS:     605717  HIT:     604734  MISS:        983
cpu0_L1D PREFETCH  REQUESTED:          0  ISSUED:          0  USEFUL:          0  USELESS:          0
cpu0_L1D AVERAGE MISS LATENCY: 64.2566 cycles
cpu0_L2C TOTAL     ACCESS:    2633704  HIT:     114324  MISS:    2519380
cpu0_L2C LOAD      ACCESS:    2514043  HIT:      32380  MISS:    2481663
cpu0_L2C RFO       ACCESS:      37720  HIT:        795  MISS:      36925
cpu0_L2C PREFETCH  ACCESS:          0  HIT:          0  MISS:          0
cpu0_L2C WRITEBACK ACCESS:      80958  HIT:      80958  MISS:          0
cpu0_L2C TRANSLATION ACCESS:        983  HIT:        191  MISS:        792
cpu0_L2C PREFETCH  REQUESTED:          0  ISSUED:          0  USEFUL:          0  USELESS:          0
cpu0_L2C AVERAGE MISS LATENCY: 52.7796 cycles
LLC TOTAL     ACCESS:    2598924  HIT:    2340691  MISS:     258233
LLC LOAD      ACCESS:    2481657  HIT:    2245795  MISS:     235862
LLC RFO       ACCESS:      36925  HIT:      20567  MISS:      16358
LLC PREFETCH  ACCESS:          0  HIT:          0  MISS:          0
LLC WRITEBACK ACCESS:      79550  HIT:      73629  MISS:       5921
LLC TRANSLATION ACCESS:        792  HIT:        700  MISS:         92
LLC PREFETCH  REQUESTED:          0  ISSUED:          0  USEFUL:          0  USELESS:          0
LLC AVERAGE MISS LATENCY: 309.969 cycles
Insertion Distribution: 
	LOAD 102793 0 0 0 0 104881 89484 
	RFO 3333 0 0 0 0 6334 8506 
	PREF 0 0 0 0 0 0 0 
	WRITEBACK 0 0 0 0 0 0 6657 
	 20 0 0 0 0 103 7 
Total Prefetch Downgrades: 0

DRAM Statistics
 CHANNEL 0
 RQ ROW_BUFFER_HIT:      22937  ROW_BUFFER_MISS:     228125
 DBUS AVG_CONGESTED_CYCLE:    3.95403
 WQ ROW_BUFFER_HIT:       5193  ROW_BUFFER_MISS:      42165  FULL:          0


CPU 0 Branch Prediction Accuracy: 97.4293% MPKI: 8.26178 Average ROB Occupancy at Mispredict: 56.9959
Branch type MPKI
BRANCH_DIRECT_JUMP: 0.00037
BRANCH_INDIRECT: 0.12485
BRANCH_CONDITIONAL: 8.10493
BRANCH_DIRECT_CALL: 0.00326
BRANCH_INDIRECT_CALL: 0.00558
BRANCH_RETURN: 0.02279

