
*** ChampSim Multicore Out-of-Order Simulator ***

Warmup Instructions: 10000000
Simulation Instructions: 100000000
Number of CPUs: 1
Off-chip DRAM Size: 4 GiB Channels: 1 Width: 64-bit Data Rate: 3200 MT/s

VirtualMemory physical capacity: 8588881920 num_ppages: 2096895
VirtualMemory page size: 4096 log2_page_size: 12

CPU 0 runs /datasets/cs240c-wi22-a00-public/data/Assignment2/xalancbmk_748B.trace.xz
CPU 0 Bimodal branch predictor
Basic BTB sets: 1024 ways: 8 indirect buffer size: 4096 RAS size: 64
Initialize SRRIP state
Heartbeat CPU 0 instructions: 10000002 cycles: 2655103 heartbeat IPC: 3.76633 cumulative IPC: 3.76633 (Simulation time: 0 hr 0 min 39 sec) 

Warmup complete CPU 0 instructions: 10000002 cycles: 2655103 (Simulation time: 0 hr 0 min 39 sec) 

Heartbeat CPU 0 instructions: 20000001 cycles: 11802272 heartbeat IPC: 1.09323 cumulative IPC: 1.09323 (Simulation time: 0 hr 1 min 28 sec) 
Heartbeat CPU 0 instructions: 30000002 cycles: 20689128 heartbeat IPC: 1.12526 cumulative IPC: 1.10901 (Simulation time: 0 hr 2 min 16 sec) 
Heartbeat CPU 0 instructions: 40000002 cycles: 30016100 heartbeat IPC: 1.07216 cumulative IPC: 1.09645 (Simulation time: 0 hr 3 min 6 sec) 
Heartbeat CPU 0 instructions: 50000001 cycles: 38524847 heartbeat IPC: 1.17526 cumulative IPC: 1.11515 (Simulation time: 0 hr 3 min 58 sec) 
Heartbeat CPU 0 instructions: 60000003 cycles: 45680177 heartbeat IPC: 1.39756 cumulative IPC: 1.16211 (Simulation time: 0 hr 4 min 54 sec) 
Heartbeat CPU 0 instructions: 70000000 cycles: 51957700 heartbeat IPC: 1.59298 cumulative IPC: 1.21697 (Simulation time: 0 hr 5 min 51 sec) 
Heartbeat CPU 0 instructions: 80000003 cycles: 62386787 heartbeat IPC: 0.958857 cumulative IPC: 1.17191 (Simulation time: 0 hr 6 min 42 sec) 
Heartbeat CPU 0 instructions: 90000003 cycles: 71028059 heartbeat IPC: 1.15724 cumulative IPC: 1.17005 (Simulation time: 0 hr 7 min 32 sec) 
Heartbeat CPU 0 instructions: 100000003 cycles: 78983449 heartbeat IPC: 1.25701 cumulative IPC: 1.17912 (Simulation time: 0 hr 8 min 25 sec) 
Heartbeat CPU 0 instructions: 110000001 cycles: 86233443 heartbeat IPC: 1.37931 cumulative IPC: 1.19648 (Simulation time: 0 hr 9 min 19 sec) 
Finished CPU 0 instructions: 100000004 cycles: 83578341 cumulative IPC: 1.19648 (Simulation time: 0 hr 9 min 19 sec) 

ChampSim completed all CPUs

Region of Interest Statistics

CPU 0 cumulative IPC: 1.19648 instructions: 100000004 cycles: 83578341
cpu0_DTLB TOTAL     ACCESS:   20937894  HIT:   19922657  MISS:    1015237
cpu0_DTLB LOAD      ACCESS:   15325198  HIT:   14390390  MISS:     934808
cpu0_DTLB RFO       ACCESS:    5612696  HIT:    5532267  MISS:      80429
cpu0_DTLB PREFETCH  ACCESS:          0  HIT:          0  MISS:          0
cpu0_DTLB WRITEBACK ACCESS:          0  HIT:          0  MISS:          0
cpu0_DTLB TRANSLATION ACCESS:          0  HIT:          0  MISS:          0
cpu0_DTLB PREFETCH  REQUESTED:          0  ISSUED:          0  USEFUL:          0  USELESS:          0
cpu0_DTLB AVERAGE MISS LATENCY: 12.6392 cycles
cpu0_ITLB TOTAL     ACCESS:    8535282  HIT:    8420247  MISS:     115035
cpu0_ITLB LOAD      ACCESS:    8535282  HIT:    8420247  MISS:     115035
cpu0_ITLB RFO       ACCESS:          0  HIT:          0  MISS:          0
cpu0_ITLB PREFETCH  ACCESS:          0  HIT:          0  MISS:          0
cpu0_ITLB WRITEBACK ACCESS:          0  HIT:          0  MISS:          0
cpu0_ITLB TRANSLATION ACCESS:          0  HIT:          0  MISS:          0
cpu0_ITLB PREFETCH  REQUESTED:          0  ISSUED:          0  USEFUL:          0  USELESS:          0
cpu0_ITLB AVERAGE MISS LATENCY: 9.08126 cycles
cpu0_L1I TOTAL     ACCESS:    5572336  HIT:    5474318  MISS:      98018
cpu0_L1I LOAD      ACCESS:    5572336  HIT:    5474318  MISS:      98018
cpu0_L1I RFO       ACCESS:          0  HIT:          0  MISS:          0
cpu0_L1I PREFETCH  ACCESS:          0  HIT:          0  MISS:          0
cpu0_L1I WRITEBACK ACCESS:          0  HIT:          0  MISS:          0
cpu0_L1I TRANSLATION ACCESS:          0  HIT:          0  MISS:          0
cpu0_L1I PREFETCH  REQUESTED:          0  ISSUED:          0  USEFUL:          0  USELESS:          0
cpu0_L1I AVERAGE MISS LATENCY: 14.3329 cycles
cpu0_STLB TOTAL     ACCESS:    1130272  HIT:    1056260  MISS:      74012
cpu0_STLB LOAD      ACCESS:    1049843  HIT:    1003753  MISS:      46090
cpu0_STLB RFO       ACCESS:      80429  HIT:      52507  MISS:      27922
cpu0_STLB PREFETCH  ACCESS:          0  HIT:          0  MISS:          0
cpu0_STLB WRITEBACK ACCESS:          0  HIT:          0  MISS:          0
cpu0_STLB TRANSLATION ACCESS:          0  HIT:          0  MISS:          0
cpu0_STLB PREFETCH  REQUESTED:          0  ISSUED:          0  USEFUL:          0  USELESS:          0
cpu0_STLB AVERAGE MISS LATENCY: 49.8891 cycles
cpu0_L1D TOTAL     ACCESS:   22868634  HIT:   21394052  MISS:    1474582
cpu0_L1D LOAD      ACCESS:   13615361  HIT:   12401976  MISS:    1213385
cpu0_L1D RFO       ACCESS:    9186424  HIT:    8940205  MISS:     246219
cpu0_L1D PREFETCH  ACCESS:          0  HIT:          0  MISS:          0
cpu0_L1D WRITEBACK ACCESS:          0  HIT:          0  MISS:          0
cpu0_L1D TRANSLATION ACCESS:      66849  HIT:      51871  MISS:      14978
cpu0_L1D PREFETCH  REQUESTED:          0  ISSUED:          0  USEFUL:          0  USELESS:          0
cpu0_L1D AVERAGE MISS LATENCY: 45.6901 cycles
cpu0_L2C TOTAL     ACCESS:    1931884  HIT:    1588103  MISS:     343781
cpu0_L2C LOAD      ACCESS:    1311359  HIT:    1191280  MISS:     120079
cpu0_L2C RFO       ACCESS:     246207  HIT:      23092  MISS:     223115
cpu0_L2C PREFETCH  ACCESS:          0  HIT:          0  MISS:          0
cpu0_L2C WRITEBACK ACCESS:     359340  HIT:     358853  MISS:        487
cpu0_L2C TRANSLATION ACCESS:      14978  HIT:      14878  MISS:        100
cpu0_L2C PREFETCH  REQUESTED:          0  ISSUED:          0  USEFUL:          0  USELESS:          0
cpu0_L2C AVERAGE MISS LATENCY: 149.166 cycles
LLC TOTAL     ACCESS:     632518  HIT:     218084  MISS:     414434
LLC LOAD      ACCESS:     120079  HIT:      67439  MISS:      52640
LLC RFO       ACCESS:     223115  HIT:      31954  MISS:     191161
LLC PREFETCH  ACCESS:          0  HIT:          0  MISS:          0
LLC WRITEBACK ACCESS:     289224  HIT:     118633  MISS:     170591
LLC TRANSLATION ACCESS:        100  HIT:         58  MISS:         42
LLC PREFETCH  REQUESTED:          0  ISSUED:          0  USEFUL:          0  USELESS:          0
LLC AVERAGE MISS LATENCY: 106.341 cycles
Insertion Distribution: 
	LOAD 16202 0 0 0 0 31859 17359 
	RFO 8894 0 0 0 0 25458 169697 
	PREF 0 0 0 0 0 0 0 
	WRITEBACK 0 0 0 0 0 0 170592 
	 20 0 0 0 0 55 4 
Total Prefetch Downgrades: 0

DRAM Statistics
 CHANNEL 0
 RQ ROW_BUFFER_HIT:      99394  ROW_BUFFER_MISS:     144444
 DBUS AVG_CONGESTED_CYCLE:    3.94526
 WQ ROW_BUFFER_HIT:      19122  ROW_BUFFER_MISS:     193579  FULL:          0


CPU 0 Branch Prediction Accuracy: 96.4988% MPKI: 10.3974 Average ROB Occupancy at Mispredict: 40.2119
Branch type MPKI
BRANCH_DIRECT_JUMP: 0.0002
BRANCH_INDIRECT: 0.35495
BRANCH_CONDITIONAL: 7.96079
BRANCH_DIRECT_CALL: 9e-05
BRANCH_INDIRECT_CALL: 0.45393
BRANCH_RETURN: 1.62746

