
*** ChampSim Multicore Out-of-Order Simulator ***

Warmup Instructions: 10000000
Simulation Instructions: 100000000
Number of CPUs: 1
Off-chip DRAM Size: 4 GiB Channels: 1 Width: 64-bit Data Rate: 3200 MT/s

VirtualMemory physical capacity: 8588881920 num_ppages: 2096895
VirtualMemory page size: 4096 log2_page_size: 12

CPU 0 runs /datasets/cs240c-wi22-a00-public/data/Assignment2/bwaves_1861B.trace.xz
CPU 0 Bimodal branch predictor
Basic BTB sets: 1024 ways: 8 indirect buffer size: 4096 RAS size: 64
Heartbeat CPU 0 instructions: 10000002 cycles: 4727892 heartbeat IPC: 2.11511 cumulative IPC: 2.11511 (Simulation time: 0 hr 1 min 23 sec) 

Warmup complete CPU 0 instructions: 10000002 cycles: 4727892 (Simulation time: 0 hr 1 min 23 sec) 

Heartbeat CPU 0 instructions: 20000002 cycles: 40077991 heartbeat IPC: 0.282885 cumulative IPC: 0.282885 (Simulation time: 0 hr 4 min 33 sec) 
Heartbeat CPU 0 instructions: 30000000 cycles: 75432918 heartbeat IPC: 0.282846 cumulative IPC: 0.282865 (Simulation time: 0 hr 7 min 38 sec) 
Heartbeat CPU 0 instructions: 40000002 cycles: 110787457 heartbeat IPC: 0.282849 cumulative IPC: 0.28286 (Simulation time: 0 hr 10 min 43 sec) 
Heartbeat CPU 0 instructions: 50000003 cycles: 146141757 heartbeat IPC: 0.282851 cumulative IPC: 0.282858 (Simulation time: 0 hr 13 min 47 sec) 
Heartbeat CPU 0 instructions: 60000000 cycles: 181489031 heartbeat IPC: 0.282907 cumulative IPC: 0.282868 (Simulation time: 0 hr 16 min 50 sec) 
Heartbeat CPU 0 instructions: 70000001 cycles: 216840178 heartbeat IPC: 0.282876 cumulative IPC: 0.282869 (Simulation time: 0 hr 19 min 51 sec) 
Heartbeat CPU 0 instructions: 80000001 cycles: 252191504 heartbeat IPC: 0.282875 cumulative IPC: 0.28287 (Simulation time: 0 hr 22 min 43 sec) 
Heartbeat CPU 0 instructions: 90000001 cycles: 280596762 heartbeat IPC: 0.352048 cumulative IPC: 0.289993 (Simulation time: 0 hr 25 min 10 sec) 
Heartbeat CPU 0 instructions: 100000002 cycles: 294473780 heartbeat IPC: 0.720616 cumulative IPC: 0.310617 (Simulation time: 0 hr 26 min 50 sec) 
Heartbeat CPU 0 instructions: 110000001 cycles: 315155910 heartbeat IPC: 0.483509 cumulative IPC: 0.322136 (Simulation time: 0 hr 28 min 58 sec) 
Finished CPU 0 instructions: 100000004 cycles: 310428019 cumulative IPC: 0.322136 (Simulation time: 0 hr 28 min 58 sec) 

ChampSim completed all CPUs

Region of Interest Statistics

CPU 0 cumulative IPC: 0.322136 instructions: 100000004 cycles: 310428019
cpu0_DTLB TOTAL     ACCESS:   32328357  HIT:   32291765  MISS:      36592
cpu0_DTLB LOAD      ACCESS:   30589019  HIT:   30553128  MISS:      35891
cpu0_DTLB RFO       ACCESS:    1739338  HIT:    1738637  MISS:        701
cpu0_DTLB PREFETCH  ACCESS:          0  HIT:          0  MISS:          0
cpu0_DTLB WRITEBACK ACCESS:          0  HIT:          0  MISS:          0
cpu0_DTLB TRANSLATION ACCESS:          0  HIT:          0  MISS:          0
cpu0_DTLB PREFETCH  REQUESTED:          0  ISSUED:          0  USEFUL:          0  USELESS:          0
cpu0_DTLB AVERAGE MISS LATENCY: 234.853 cycles
cpu0_ITLB TOTAL     ACCESS:    9876510  HIT:    9876508  MISS:          2
cpu0_ITLB LOAD      ACCESS:    9876510  HIT:    9876508  MISS:          2
cpu0_ITLB RFO       ACCESS:          0  HIT:          0  MISS:          0
cpu0_ITLB PREFETCH  ACCESS:          0  HIT:          0  MISS:          0
cpu0_ITLB WRITEBACK ACCESS:          0  HIT:          0  MISS:          0
cpu0_ITLB TRANSLATION ACCESS:          0  HIT:          0  MISS:          0
cpu0_ITLB PREFETCH  REQUESTED:          0  ISSUED:          0  USEFUL:          0  USELESS:          0
cpu0_ITLB AVERAGE MISS LATENCY: 320 cycles
cpu0_L1I TOTAL     ACCESS:         28  HIT:         12  MISS:         16
cpu0_L1I LOAD      ACCESS:         28  HIT:         12  MISS:         16
cpu0_L1I RFO       ACCESS:          0  HIT:          0  MISS:          0
cpu0_L1I PREFETCH  ACCESS:          0  HIT:          0  MISS:          0
cpu0_L1I WRITEBACK ACCESS:          0  HIT:          0  MISS:          0
cpu0_L1I TRANSLATION ACCESS:          0  HIT:          0  MISS:          0
cpu0_L1I PREFETCH  REQUESTED:          0  ISSUED:          0  USEFUL:          0  USELESS:          0
cpu0_L1I AVERAGE MISS LATENCY: 252 cycles
cpu0_STLB TOTAL     ACCESS:      36594  HIT:       1139  MISS:      35455
cpu0_STLB LOAD      ACCESS:      35893  HIT:       1139  MISS:      34754
cpu0_STLB RFO       ACCESS:        701  HIT:          0  MISS:        701
cpu0_STLB PREFETCH  ACCESS:          0  HIT:          0  MISS:          0
cpu0_STLB WRITEBACK ACCESS:          0  HIT:          0  MISS:          0
cpu0_STLB TRANSLATION ACCESS:          0  HIT:          0  MISS:          0
cpu0_STLB PREFETCH  REQUESTED:          0  ISSUED:          0  USEFUL:          0  USELESS:          0
cpu0_STLB AVERAGE MISS LATENCY: 232.616 cycles
cpu0_L1D TOTAL     ACCESS:   27696902  HIT:   25284841  MISS:    2412061
cpu0_L1D LOAD      ACCESS:   24993185  HIT:   22627937  MISS:    2365248
cpu0_L1D RFO       ACCESS:    2668262  HIT:    2623391  MISS:      44871
cpu0_L1D PREFETCH  ACCESS:          0  HIT:          0  MISS:          0
cpu0_L1D WRITEBACK ACCESS:          0  HIT:          0  MISS:          0
cpu0_L1D TRANSLATION ACCESS:      35455  HIT:      33513  MISS:       1942
cpu0_L1D PREFETCH  REQUESTED:          0  ISSUED:          0  USEFUL:          0  USELESS:          0
cpu0_L1D AVERAGE MISS LATENCY: 1047.73 cycles
cpu0_L2C TOTAL     ACCESS:    2572723  HIT:     254855  MISS:    2317868
cpu0_L2C LOAD      ACCESS:    2365264  HIT:      92292  MISS:    2272972
cpu0_L2C RFO       ACCESS:      44871  HIT:          0  MISS:      44871
cpu0_L2C PREFETCH  ACCESS:          0  HIT:          0  MISS:          0
cpu0_L2C WRITEBACK ACCESS:     160646  HIT:     160641  MISS:          5
cpu0_L2C TRANSLATION ACCESS:       1942  HIT:       1922  MISS:         20
cpu0_L2C PREFETCH  REQUESTED:          0  ISSUED:          0  USEFUL:          0  USELESS:          0
cpu0_L2C AVERAGE MISS LATENCY: 1078.49 cycles
LLC TOTAL     ACCESS:    2473542  HIT:     155698  MISS:    2317844
LLC LOAD      ACCESS:    2272972  HIT:         75  MISS:    2272897
LLC RFO       ACCESS:      44871  HIT:          0  MISS:      44871
LLC PREFETCH  ACCESS:          0  HIT:          0  MISS:          0
LLC WRITEBACK ACCESS:     155679  HIT:     155622  MISS:         57
LLC TRANSLATION ACCESS:         20  HIT:          1  MISS:         19
LLC PREFETCH  REQUESTED:          0  ISSUED:          0  USEFUL:          0  USELESS:          0
LLC AVERAGE MISS LATENCY: 1057.5 cycles

DRAM Statistics
 CHANNEL 0
 RQ ROW_BUFFER_HIT:      19473  ROW_BUFFER_MISS:    2298267
 DBUS AVG_CONGESTED_CYCLE:    3.97251
 WQ ROW_BUFFER_HIT:      18772  ROW_BUFFER_MISS:     125267  FULL:          0


CPU 0 Branch Prediction Accuracy: 70.4481% MPKI: 17.8647 Average ROB Occupancy at Mispredict: 235.81
Branch type MPKI
BRANCH_DIRECT_JUMP: 2e-05
BRANCH_INDIRECT: 0
BRANCH_CONDITIONAL: 17.8646
BRANCH_DIRECT_CALL: 0
BRANCH_INDIRECT_CALL: 0
BRANCH_RETURN: 1e-05

