
*** ChampSim Multicore Out-of-Order Simulator ***

Warmup Instructions: 10000000
Simulation Instructions: 100000000
Number of CPUs: 1
Off-chip DRAM Size: 4 GiB Channels: 1 Width: 64-bit Data Rate: 3200 MT/s

VirtualMemory physical capacity: 8588881920 num_ppages: 2096895
VirtualMemory page size: 4096 log2_page_size: 12

CPU 0 runs /datasets/cs240c-wi22-a00-public/data/Assignment2/gobmk_135B.trace.xz
CPU 0 Bimodal branch predictor
Basic BTB sets: 1024 ways: 8 indirect buffer size: 4096 RAS size: 64
Heartbeat CPU 0 instructions: 10000003 cycles: 2549267 heartbeat IPC: 3.9227 cumulative IPC: 3.9227 (Simulation time: 0 hr 0 min 33 sec) 

Warmup complete CPU 0 instructions: 10000003 cycles: 2549267 (Simulation time: 0 hr 0 min 33 sec) 

Heartbeat CPU 0 instructions: 20000000 cycles: 14300232 heartbeat IPC: 0.850994 cumulative IPC: 0.850994 (Simulation time: 0 hr 1 min 12 sec) 
Heartbeat CPU 0 instructions: 30000004 cycles: 25688622 heartbeat IPC: 0.878088 cumulative IPC: 0.864328 (Simulation time: 0 hr 1 min 50 sec) 
Heartbeat CPU 0 instructions: 40000003 cycles: 36554293 heartbeat IPC: 0.92033 cumulative IPC: 0.882223 (Simulation time: 0 hr 2 min 29 sec) 
Heartbeat CPU 0 instructions: 50000004 cycles: 47795082 heartbeat IPC: 0.889617 cumulative IPC: 0.88406 (Simulation time: 0 hr 3 min 9 sec) 
Heartbeat CPU 0 instructions: 60000003 cycles: 59081327 heartbeat IPC: 0.886034 cumulative IPC: 0.884454 (Simulation time: 0 hr 3 min 48 sec) 
Heartbeat CPU 0 instructions: 70000000 cycles: 70121513 heartbeat IPC: 0.905782 cumulative IPC: 0.887938 (Simulation time: 0 hr 4 min 27 sec) 
Heartbeat CPU 0 instructions: 80000004 cycles: 81707399 heartbeat IPC: 0.863119 cumulative IPC: 0.884306 (Simulation time: 0 hr 5 min 7 sec) 
Heartbeat CPU 0 instructions: 90000004 cycles: 92910558 heartbeat IPC: 0.892605 cumulative IPC: 0.885335 (Simulation time: 0 hr 5 min 46 sec) 
Heartbeat CPU 0 instructions: 100000003 cycles: 104403376 heartbeat IPC: 0.870109 cumulative IPC: 0.883617 (Simulation time: 0 hr 6 min 24 sec) 
Heartbeat CPU 0 instructions: 110000002 cycles: 115898047 heartbeat IPC: 0.869968 cumulative IPC: 0.882233 (Simulation time: 0 hr 7 min 4 sec) 
Finished CPU 0 instructions: 100000004 cycles: 113348781 cumulative IPC: 0.882233 (Simulation time: 0 hr 7 min 4 sec) 

ChampSim completed all CPUs

Region of Interest Statistics

CPU 0 cumulative IPC: 0.882233 instructions: 100000004 cycles: 113348781
cpu0_DTLB TOTAL     ACCESS:   21502496  HIT:   21376311  MISS:     126185
cpu0_DTLB LOAD      ACCESS:   14899207  HIT:   14792032  MISS:     107175
cpu0_DTLB RFO       ACCESS:    6603289  HIT:    6584279  MISS:      19010
cpu0_DTLB PREFETCH  ACCESS:          0  HIT:          0  MISS:          0
cpu0_DTLB WRITEBACK ACCESS:          0  HIT:          0  MISS:          0
cpu0_DTLB TRANSLATION ACCESS:          0  HIT:          0  MISS:          0
cpu0_DTLB PREFETCH  REQUESTED:          0  ISSUED:          0  USEFUL:          0  USELESS:          0
cpu0_DTLB AVERAGE MISS LATENCY: 11.2711 cycles
cpu0_ITLB TOTAL     ACCESS:    9266887  HIT:    9264446  MISS:       2441
cpu0_ITLB LOAD      ACCESS:    9266887  HIT:    9264446  MISS:       2441
cpu0_ITLB RFO       ACCESS:          0  HIT:          0  MISS:          0
cpu0_ITLB PREFETCH  ACCESS:          0  HIT:          0  MISS:          0
cpu0_ITLB WRITEBACK ACCESS:          0  HIT:          0  MISS:          0
cpu0_ITLB TRANSLATION ACCESS:          0  HIT:          0  MISS:          0
cpu0_ITLB PREFETCH  REQUESTED:          0  ISSUED:          0  USEFUL:          0  USELESS:          0
cpu0_ITLB AVERAGE MISS LATENCY: 10.8054 cycles
cpu0_L1I TOTAL     ACCESS:    7388571  HIT:    7078795  MISS:     309776
cpu0_L1I LOAD      ACCESS:    7388571  HIT:    7078795  MISS:     309776
cpu0_L1I RFO       ACCESS:          0  HIT:          0  MISS:          0
cpu0_L1I PREFETCH  ACCESS:          0  HIT:          0  MISS:          0
cpu0_L1I WRITEBACK ACCESS:          0  HIT:          0  MISS:          0
cpu0_L1I TRANSLATION ACCESS:          0  HIT:          0  MISS:          0
cpu0_L1I PREFETCH  REQUESTED:          0  ISSUED:          0  USEFUL:          0  USELESS:          0
cpu0_L1I AVERAGE MISS LATENCY: 12.9372 cycles
cpu0_STLB TOTAL     ACCESS:     128626  HIT:     123298  MISS:       5328
cpu0_STLB LOAD      ACCESS:     109616  HIT:     104522  MISS:       5094
cpu0_STLB RFO       ACCESS:      19010  HIT:      18776  MISS:        234
cpu0_STLB PREFETCH  ACCESS:          0  HIT:          0  MISS:          0
cpu0_STLB WRITEBACK ACCESS:          0  HIT:          0  MISS:          0
cpu0_STLB TRANSLATION ACCESS:          0  HIT:          0  MISS:          0
cpu0_STLB PREFETCH  REQUESTED:          0  ISSUED:          0  USEFUL:          0  USELESS:          0
cpu0_STLB AVERAGE MISS LATENCY: 54.5495 cycles
cpu0_L1D TOTAL     ACCESS:   26588381  HIT:   26129193  MISS:     459188
cpu0_L1D LOAD      ACCESS:   14809092  HIT:   14499770  MISS:     309322
cpu0_L1D RFO       ACCESS:   11773967  HIT:   11624754  MISS:     149213
cpu0_L1D PREFETCH  ACCESS:          0  HIT:          0  MISS:          0
cpu0_L1D WRITEBACK ACCESS:          0  HIT:          0  MISS:          0
cpu0_L1D TRANSLATION ACCESS:       5322  HIT:       4669  MISS:        653
cpu0_L1D PREFETCH  REQUESTED:          0  ISSUED:          0  USEFUL:          0  USELESS:          0
cpu0_L1D AVERAGE MISS LATENCY: 27.6086 cycles
cpu0_L2C TOTAL     ACCESS:     984504  HIT:     813680  MISS:     170824
cpu0_L2C LOAD      ACCESS:     619096  HIT:     483329  MISS:     135767
cpu0_L2C RFO       ACCESS:     149202  HIT:     114231  MISS:      34971
cpu0_L2C PREFETCH  ACCESS:          0  HIT:          0  MISS:          0
cpu0_L2C WRITEBACK ACCESS:     215553  HIT:     215510  MISS:         43
cpu0_L2C TRANSLATION ACCESS:        653  HIT:        610  MISS:         43
cpu0_L2C PREFETCH  REQUESTED:          0  ISSUED:          0  USEFUL:          0  USELESS:          0
cpu0_L2C AVERAGE MISS LATENCY: 47.9606 cycles
LLC TOTAL     ACCESS:     247468  HIT:     220309  MISS:      27159
LLC LOAD      ACCESS:     135766  HIT:     113169  MISS:      22597
LLC RFO       ACCESS:      34971  HIT:      30545  MISS:       4426
LLC PREFETCH  ACCESS:          0  HIT:          0  MISS:          0
LLC WRITEBACK ACCESS:      76688  HIT:      76555  MISS:        133
LLC TRANSLATION ACCESS:         43  HIT:         40  MISS:          3
LLC PREFETCH  REQUESTED:          0  ISSUED:          0  USEFUL:          0  USELESS:          0
LLC AVERAGE MISS LATENCY: 169.609 cycles

DRAM Statistics
 CHANNEL 0
 RQ ROW_BUFFER_HIT:       4190  ROW_BUFFER_MISS:      22824
 DBUS AVG_CONGESTED_CYCLE:    3.84204
 WQ ROW_BUFFER_HIT:       1713  ROW_BUFFER_MISS:       5727  FULL:          0


CPU 0 Branch Prediction Accuracy: 87.3602% MPKI: 24.4764 Average ROB Occupancy at Mispredict: 16.8336
Branch type MPKI
BRANCH_DIRECT_JUMP: 0.00393
BRANCH_INDIRECT: 2e-05
BRANCH_CONDITIONAL: 24.4297
BRANCH_DIRECT_CALL: 0.00715
BRANCH_INDIRECT_CALL: 0.03275
BRANCH_RETURN: 0.00288

