
*** ChampSim Multicore Out-of-Order Simulator ***

Warmup Instructions: 10000000
Simulation Instructions: 100000000
Number of CPUs: 1
Off-chip DRAM Size: 4 GiB Channels: 1 Width: 64-bit Data Rate: 3200 MT/s

VirtualMemory physical capacity: 8588881920 num_ppages: 2096895
VirtualMemory page size: 4096 log2_page_size: 12

CPU 0 runs /datasets/cs240c-wi22-a00-public/data/Assignment2/leslie3d_1186B.trace.xz
CPU 0 Bimodal branch predictor
Basic BTB sets: 1024 ways: 8 indirect buffer size: 4096 RAS size: 64
Heartbeat CPU 0 instructions: 10000000 cycles: 4308776 heartbeat IPC: 2.32084 cumulative IPC: 2.32084 (Simulation time: 0 hr 1 min 9 sec) 

Warmup complete CPU 0 instructions: 10000005 cycles: 4308777 (Simulation time: 0 hr 1 min 9 sec) 

Heartbeat CPU 0 instructions: 20000000 cycles: 19840459 heartbeat IPC: 0.643845 cumulative IPC: 0.643845 (Simulation time: 0 hr 3 min 19 sec) 
Heartbeat CPU 0 instructions: 30000000 cycles: 34983689 heartbeat IPC: 0.660361 cumulative IPC: 0.651998 (Simulation time: 0 hr 5 min 26 sec) 
Heartbeat CPU 0 instructions: 40000004 cycles: 50032687 heartbeat IPC: 0.664496 cumulative IPC: 0.656112 (Simulation time: 0 hr 7 min 32 sec) 
Heartbeat CPU 0 instructions: 50000001 cycles: 66542847 heartbeat IPC: 0.605687 cumulative IPC: 0.642735 (Simulation time: 0 hr 9 min 35 sec) 
Heartbeat CPU 0 instructions: 60000000 cycles: 103379989 heartbeat IPC: 0.271465 cumulative IPC: 0.504687 (Simulation time: 0 hr 13 min 20 sec) 
Heartbeat CPU 0 instructions: 70000000 cycles: 131965223 heartbeat IPC: 0.349831 cumulative IPC: 0.470011 (Simulation time: 0 hr 16 min 30 sec) 
Heartbeat CPU 0 instructions: 80000003 cycles: 142161088 heartbeat IPC: 0.98079 cumulative IPC: 0.50779 (Simulation time: 0 hr 18 min 12 sec) 
Heartbeat CPU 0 instructions: 90000002 cycles: 152361083 heartbeat IPC: 0.980393 cumulative IPC: 0.54035 (Simulation time: 0 hr 19 min 54 sec) 
Heartbeat CPU 0 instructions: 100000000 cycles: 162574067 heartbeat IPC: 0.979146 cumulative IPC: 0.568665 (Simulation time: 0 hr 21 min 37 sec) 
Heartbeat CPU 0 instructions: 110000000 cycles: 172826285 heartbeat IPC: 0.975399 cumulative IPC: 0.59341 (Simulation time: 0 hr 23 min 23 sec) 
Finished CPU 0 instructions: 100000000 cycles: 168517509 cumulative IPC: 0.59341 (Simulation time: 0 hr 23 min 23 sec) 

ChampSim completed all CPUs

Region of Interest Statistics

CPU 0 cumulative IPC: 0.59341 instructions: 100000000 cycles: 168517509
cpu0_DTLB TOTAL     ACCESS:   27941539  HIT:   27843835  MISS:      97704
cpu0_DTLB LOAD      ACCESS:   23268041  HIT:   23182090  MISS:      85951
cpu0_DTLB RFO       ACCESS:    4673498  HIT:    4661745  MISS:      11753
cpu0_DTLB PREFETCH  ACCESS:          0  HIT:          0  MISS:          0
cpu0_DTLB WRITEBACK ACCESS:          0  HIT:          0  MISS:          0
cpu0_DTLB TRANSLATION ACCESS:          0  HIT:          0  MISS:          0
cpu0_DTLB PREFETCH  REQUESTED:          0  ISSUED:          0  USEFUL:          0  USELESS:          0
cpu0_DTLB AVERAGE MISS LATENCY: 53.9311 cycles
cpu0_ITLB TOTAL     ACCESS:    2878083  HIT:    2878070  MISS:         13
cpu0_ITLB LOAD      ACCESS:    2878083  HIT:    2878070  MISS:         13
cpu0_ITLB RFO       ACCESS:          0  HIT:          0  MISS:          0
cpu0_ITLB PREFETCH  ACCESS:          0  HIT:          0  MISS:          0
cpu0_ITLB WRITEBACK ACCESS:          0  HIT:          0  MISS:          0
cpu0_ITLB TRANSLATION ACCESS:          0  HIT:          0  MISS:          0
cpu0_ITLB PREFETCH  REQUESTED:          0  ISSUED:          0  USEFUL:          0  USELESS:          0
cpu0_ITLB AVERAGE MISS LATENCY: 218.231 cycles
cpu0_L1I TOTAL     ACCESS:    1737354  HIT:    1736974  MISS:        380
cpu0_L1I LOAD      ACCESS:    1737354  HIT:    1736974  MISS:        380
cpu0_L1I RFO       ACCESS:          0  HIT:          0  MISS:          0
cpu0_L1I PREFETCH  ACCESS:          0  HIT:          0  MISS:          0
cpu0_L1I WRITEBACK ACCESS:          0  HIT:          0  MISS:          0
cpu0_L1I TRANSLATION ACCESS:          0  HIT:          0  MISS:          0
cpu0_L1I PREFETCH  REQUESTED:          0  ISSUED:          0  USEFUL:          0  USELESS:          0
cpu0_L1I AVERAGE MISS LATENCY: 339.426 cycles
cpu0_STLB TOTAL     ACCESS:      97717  HIT:      70315  MISS:      27402
cpu0_STLB LOAD      ACCESS:      85964  HIT:      63237  MISS:      22727
cpu0_STLB RFO       ACCESS:      11753  HIT:       7078  MISS:       4675
cpu0_STLB PREFETCH  ACCESS:          0  HIT:          0  MISS:          0
cpu0_STLB WRITEBACK ACCESS:          0  HIT:          0  MISS:          0
cpu0_STLB TRANSLATION ACCESS:          0  HIT:          0  MISS:          0
cpu0_STLB PREFETCH  REQUESTED:          0  ISSUED:          0  USEFUL:          0  USELESS:          0
cpu0_STLB AVERAGE MISS LATENCY: 160.25 cycles
cpu0_L1D TOTAL     ACCESS:   26803521  HIT:   22900865  MISS:    3902656
cpu0_L1D LOAD      ACCESS:   17572183  HIT:   14388579  MISS:    3183604
cpu0_L1D RFO       ACCESS:    9206804  HIT:    8491194  MISS:     715610
cpu0_L1D PREFETCH  ACCESS:          0  HIT:          0  MISS:          0
cpu0_L1D WRITEBACK ACCESS:          0  HIT:          0  MISS:          0
cpu0_L1D TRANSLATION ACCESS:      24534  HIT:      21092  MISS:       3442
cpu0_L1D PREFETCH  REQUESTED:          0  ISSUED:          0  USEFUL:          0  USELESS:          0
cpu0_L1D AVERAGE MISS LATENCY: 388.616 cycles
cpu0_L2C TOTAL     ACCESS:    4956212  HIT:    2399159  MISS:    2557053
cpu0_L2C LOAD      ACCESS:    3183939  HIT:    1036978  MISS:    2146961
cpu0_L2C RFO       ACCESS:     715296  HIT:     307622  MISS:     407674
cpu0_L2C PREFETCH  ACCESS:          0  HIT:          0  MISS:          0
cpu0_L2C WRITEBACK ACCESS:    1053535  HIT:    1051327  MISS:       2208
cpu0_L2C TRANSLATION ACCESS:       3442  HIT:       3232  MISS:        210
cpu0_L2C PREFETCH  REQUESTED:          0  ISSUED:          0  USEFUL:          0  USELESS:          0
cpu0_L2C AVERAGE MISS LATENCY: 576.323 cycles
LLC TOTAL     ACCESS:    3217170  HIT:    1187358  MISS:    2029812
LLC LOAD      ACCESS:    2146951  HIT:     427403  MISS:    1719548
LLC RFO       ACCESS:     407663  HIT:     104694  MISS:     302969
LLC PREFETCH  ACCESS:          0  HIT:          0  MISS:          0
LLC WRITEBACK ACCESS:     662346  HIT:     655110  MISS:       7236
LLC TRANSLATION ACCESS:        210  HIT:        151  MISS:         59
LLC PREFETCH  REQUESTED:          0  ISSUED:          0  USEFUL:          0  USELESS:          0
LLC AVERAGE MISS LATENCY: 699.586 cycles

DRAM Statistics
 CHANNEL 0
 RQ ROW_BUFFER_HIT:     220700  ROW_BUFFER_MISS:    1800957
 DBUS AVG_CONGESTED_CYCLE:    3.94665
 WQ ROW_BUFFER_HIT:      33423  ROW_BUFFER_MISS:     508025  FULL:          0


CPU 0 Branch Prediction Accuracy: 96.8384% MPKI: 1.47634 Average ROB Occupancy at Mispredict: 312.109
Branch type MPKI
BRANCH_DIRECT_JUMP: 0.00016
BRANCH_INDIRECT: 0
BRANCH_CONDITIONAL: 1.47504
BRANCH_DIRECT_CALL: 0.00057
BRANCH_INDIRECT_CALL: 0
BRANCH_RETURN: 0.00057

