
*** ChampSim Multicore Out-of-Order Simulator ***

Warmup Instructions: 10000000
Simulation Instructions: 100000000
Number of CPUs: 1
Off-chip DRAM Size: 4 GiB Channels: 1 Width: 64-bit Data Rate: 3200 MT/s

VirtualMemory physical capacity: 8588881920 num_ppages: 2096895
VirtualMemory page size: 4096 log2_page_size: 12

CPU 0 runs /datasets/cs240c-wi22-a00-public/data/Assignment2/leslie3d_1116B.trace.xz
CPU 0 Bimodal branch predictor
Basic BTB sets: 1024 ways: 8 indirect buffer size: 4096 RAS size: 64
Heartbeat CPU 0 instructions: 10000000 cycles: 3692527 heartbeat IPC: 2.70817 cumulative IPC: 2.70817 (Simulation time: 0 hr 0 min 54 sec) 

Warmup complete CPU 0 instructions: 10000005 cycles: 3692528 (Simulation time: 0 hr 0 min 54 sec) 

Heartbeat CPU 0 instructions: 20000000 cycles: 16520302 heartbeat IPC: 0.779558 cumulative IPC: 0.779558 (Simulation time: 0 hr 2 min 48 sec) 
Heartbeat CPU 0 instructions: 30000003 cycles: 29344880 heartbeat IPC: 0.779753 cumulative IPC: 0.779656 (Simulation time: 0 hr 4 min 42 sec) 
Heartbeat CPU 0 instructions: 40000004 cycles: 43725416 heartbeat IPC: 0.695384 cumulative IPC: 0.749384 (Simulation time: 0 hr 6 min 43 sec) 
Heartbeat CPU 0 instructions: 50000000 cycles: 65650512 heartbeat IPC: 0.456098 cumulative IPC: 0.645599 (Simulation time: 0 hr 9 min 18 sec) 
Heartbeat CPU 0 instructions: 60000001 cycles: 120630277 heartbeat IPC: 0.181885 cumulative IPC: 0.427578 (Simulation time: 0 hr 14 min 42 sec) 
Heartbeat CPU 0 instructions: 70000000 cycles: 136403444 heartbeat IPC: 0.633988 cumulative IPC: 0.45211 (Simulation time: 0 hr 16 min 56 sec) 
Heartbeat CPU 0 instructions: 80000001 cycles: 151495515 heartbeat IPC: 0.6626 cumulative IPC: 0.473603 (Simulation time: 0 hr 19 min 4 sec) 
Heartbeat CPU 0 instructions: 90000004 cycles: 166455203 heartbeat IPC: 0.668463 cumulative IPC: 0.491513 (Simulation time: 0 hr 21 min 12 sec) 
Heartbeat CPU 0 instructions: 100000002 cycles: 181349907 heartbeat IPC: 0.671379 cumulative IPC: 0.506593 (Simulation time: 0 hr 23 min 20 sec) 
Heartbeat CPU 0 instructions: 110000000 cycles: 199071912 heartbeat IPC: 0.56427 cumulative IPC: 0.511825 (Simulation time: 0 hr 25 min 32 sec) 
Finished CPU 0 instructions: 100000000 cycles: 195379385 cumulative IPC: 0.511825 (Simulation time: 0 hr 25 min 32 sec) 

ChampSim completed all CPUs

Region of Interest Statistics

CPU 0 cumulative IPC: 0.511825 instructions: 100000000 cycles: 195379385
cpu0_DTLB TOTAL     ACCESS:   25760227  HIT:   25694497  MISS:      65730
cpu0_DTLB LOAD      ACCESS:   21111197  HIT:   21059498  MISS:      51699
cpu0_DTLB RFO       ACCESS:    4649030  HIT:    4634999  MISS:      14031
cpu0_DTLB PREFETCH  ACCESS:          0  HIT:          0  MISS:          0
cpu0_DTLB WRITEBACK ACCESS:          0  HIT:          0  MISS:          0
cpu0_DTLB TRANSLATION ACCESS:          0  HIT:          0  MISS:          0
cpu0_DTLB PREFETCH  REQUESTED:          0  ISSUED:          0  USEFUL:          0  USELESS:          0
cpu0_DTLB AVERAGE MISS LATENCY: 90.4446 cycles
cpu0_ITLB TOTAL     ACCESS:    2873058  HIT:    2873040  MISS:         18
cpu0_ITLB LOAD      ACCESS:    2873058  HIT:    2873040  MISS:         18
cpu0_ITLB RFO       ACCESS:          0  HIT:          0  MISS:          0
cpu0_ITLB PREFETCH  ACCESS:          0  HIT:          0  MISS:          0
cpu0_ITLB WRITEBACK ACCESS:          0  HIT:          0  MISS:          0
cpu0_ITLB TRANSLATION ACCESS:          0  HIT:          0  MISS:          0
cpu0_ITLB PREFETCH  REQUESTED:          0  ISSUED:          0  USEFUL:          0  USELESS:          0
cpu0_ITLB AVERAGE MISS LATENCY: 260.111 cycles
cpu0_L1I TOTAL     ACCESS:    1772980  HIT:    1772508  MISS:        472
cpu0_L1I LOAD      ACCESS:    1772980  HIT:    1772508  MISS:        472
cpu0_L1I RFO       ACCESS:          0  HIT:          0  MISS:          0
cpu0_L1I PREFETCH  ACCESS:          0  HIT:          0  MISS:          0
cpu0_L1I WRITEBACK ACCESS:          0  HIT:          0  MISS:          0
cpu0_L1I TRANSLATION ACCESS:          0  HIT:          0  MISS:          0
cpu0_L1I PREFETCH  REQUESTED:          0  ISSUED:          0  USEFUL:          0  USELESS:          0
cpu0_L1I AVERAGE MISS LATENCY: 336.699 cycles
cpu0_STLB TOTAL     ACCESS:      65748  HIT:      34124  MISS:      31624
cpu0_STLB LOAD      ACCESS:      51717  HIT:      28251  MISS:      23466
cpu0_STLB RFO       ACCESS:      14031  HIT:       5873  MISS:       8158
cpu0_STLB PREFETCH  ACCESS:          0  HIT:          0  MISS:          0
cpu0_STLB WRITEBACK ACCESS:          0  HIT:          0  MISS:          0
cpu0_STLB TRANSLATION ACCESS:          0  HIT:          0  MISS:          0
cpu0_STLB PREFETCH  REQUESTED:          0  ISSUED:          0  USEFUL:          0  USELESS:          0
cpu0_STLB AVERAGE MISS LATENCY: 169.411 cycles
cpu0_L1D TOTAL     ACCESS:   23892396  HIT:   20482169  MISS:    3410227
cpu0_L1D LOAD      ACCESS:   15733539  HIT:   13116185  MISS:    2617354
cpu0_L1D RFO       ACCESS:    8129519  HIT:    7340281  MISS:     789238
cpu0_L1D PREFETCH  ACCESS:          0  HIT:          0  MISS:          0
cpu0_L1D WRITEBACK ACCESS:          0  HIT:          0  MISS:          0
cpu0_L1D TRANSLATION ACCESS:      29338  HIT:      25703  MISS:       3635
cpu0_L1D PREFETCH  REQUESTED:          0  ISSUED:          0  USEFUL:          0  USELESS:          0
cpu0_L1D AVERAGE MISS LATENCY: 579.287 cycles
cpu0_L2C TOTAL     ACCESS:    4454937  HIT:    1718370  MISS:    2736567
cpu0_L2C LOAD      ACCESS:    2617784  HIT:     507972  MISS:    2109812
cpu0_L2C RFO       ACCESS:     789147  HIT:     162665  MISS:     626482
cpu0_L2C PREFETCH  ACCESS:          0  HIT:          0  MISS:          0
cpu0_L2C WRITEBACK ACCESS:    1044371  HIT:    1044196  MISS:        175
cpu0_L2C TRANSLATION ACCESS:       3635  HIT:       3537  MISS:         98
cpu0_L2C PREFETCH  REQUESTED:          0  ISSUED:          0  USEFUL:          0  USELESS:          0
cpu0_L2C AVERAGE MISS LATENCY: 708.211 cycles
LLC TOTAL     ACCESS:    3497106  HIT:    1035010  MISS:    2462096
LLC LOAD      ACCESS:    2109812  HIT:     169334  MISS:    1940478
LLC RFO       ACCESS:     626482  HIT:     107709  MISS:     518773
LLC PREFETCH  ACCESS:          0  HIT:          0  MISS:          0
LLC WRITEBACK ACCESS:     760714  HIT:     757965  MISS:       2749
LLC TRANSLATION ACCESS:         98  HIT:          2  MISS:         96
LLC PREFETCH  REQUESTED:          0  ISSUED:          0  USEFUL:          0  USELESS:          0
LLC AVERAGE MISS LATENCY: 763.818 cycles

DRAM Statistics
 CHANNEL 0
 RQ ROW_BUFFER_HIT:     238283  ROW_BUFFER_MISS:    2219799
 DBUS AVG_CONGESTED_CYCLE:    3.95725
 WQ ROW_BUFFER_HIT:      56634  ROW_BUFFER_MISS:     599072  FULL:          0


CPU 0 Branch Prediction Accuracy: 96.8713% MPKI: 1.55303 Average ROB Occupancy at Mispredict: 300.369
Branch type MPKI
BRANCH_DIRECT_JUMP: 0.00018
BRANCH_INDIRECT: 0
BRANCH_CONDITIONAL: 1.55065
BRANCH_DIRECT_CALL: 0.00113
BRANCH_INDIRECT_CALL: 0
BRANCH_RETURN: 0.00107

