
*** ChampSim Multicore Out-of-Order Simulator ***

Warmup Instructions: 10000000
Simulation Instructions: 100000000
Number of CPUs: 1
Off-chip DRAM Size: 4 GiB Channels: 1 Width: 64-bit Data Rate: 3200 MT/s

VirtualMemory physical capacity: 8588881920 num_ppages: 2096895
VirtualMemory page size: 4096 log2_page_size: 12

CPU 0 runs /datasets/cs240c-wi22-a00-public/data/Assignment2/omnetpp_17B.trace.xz
CPU 0 Bimodal branch predictor
Basic BTB sets: 1024 ways: 8 indirect buffer size: 4096 RAS size: 64
Heartbeat CPU 0 instructions: 10000002 cycles: 2500125 heartbeat IPC: 3.9998 cumulative IPC: 3.9998 (Simulation time: 0 hr 0 min 24 sec) 

Warmup complete CPU 0 instructions: 10000002 cycles: 2500125 (Simulation time: 0 hr 0 min 24 sec) 

Heartbeat CPU 0 instructions: 20000003 cycles: 8453553 heartbeat IPC: 1.6797 cumulative IPC: 1.6797 (Simulation time: 0 hr 0 min 54 sec) 
Heartbeat CPU 0 instructions: 30000000 cycles: 16783135 heartbeat IPC: 1.20054 cumulative IPC: 1.40026 (Simulation time: 0 hr 1 min 44 sec) 
Heartbeat CPU 0 instructions: 40000001 cycles: 25426431 heartbeat IPC: 1.15697 cumulative IPC: 1.30854 (Simulation time: 0 hr 2 min 36 sec) 
Heartbeat CPU 0 instructions: 50000001 cycles: 31909352 heartbeat IPC: 1.54251 cumulative IPC: 1.36012 (Simulation time: 0 hr 3 min 12 sec) 
Heartbeat CPU 0 instructions: 60000001 cycles: 38844129 heartbeat IPC: 1.44201 cumulative IPC: 1.37574 (Simulation time: 0 hr 3 min 51 sec) 
Heartbeat CPU 0 instructions: 70000000 cycles: 47089002 heartbeat IPC: 1.21287 cumulative IPC: 1.34563 (Simulation time: 0 hr 4 min 40 sec) 
Heartbeat CPU 0 instructions: 80000002 cycles: 55380743 heartbeat IPC: 1.20602 cumulative IPC: 1.32374 (Simulation time: 0 hr 5 min 28 sec) 
Heartbeat CPU 0 instructions: 90000003 cycles: 63597963 heartbeat IPC: 1.21696 cumulative IPC: 1.30938 (Simulation time: 0 hr 6 min 15 sec) 
Heartbeat CPU 0 instructions: 100000002 cycles: 68950518 heartbeat IPC: 1.86827 cumulative IPC: 1.35439 (Simulation time: 0 hr 6 min 43 sec) 
Heartbeat CPU 0 instructions: 110000001 cycles: 77073669 heartbeat IPC: 1.23105 cumulative IPC: 1.34096 (Simulation time: 0 hr 7 min 33 sec) 
Finished CPU 0 instructions: 100000004 cycles: 74573551 cumulative IPC: 1.34096 (Simulation time: 0 hr 7 min 33 sec) 

ChampSim completed all CPUs

Region of Interest Statistics

CPU 0 cumulative IPC: 1.34096 instructions: 100000004 cycles: 74573551
cpu0_DTLB TOTAL     ACCESS:   10205415  HIT:    9140561  MISS:    1064854
cpu0_DTLB LOAD      ACCESS:    8267825  HIT:    7204851  MISS:    1062974
cpu0_DTLB RFO       ACCESS:    1937590  HIT:    1935710  MISS:       1880
cpu0_DTLB PREFETCH  ACCESS:          0  HIT:          0  MISS:          0
cpu0_DTLB WRITEBACK ACCESS:          0  HIT:          0  MISS:          0
cpu0_DTLB TRANSLATION ACCESS:          0  HIT:          0  MISS:          0
cpu0_DTLB PREFETCH  REQUESTED:          0  ISSUED:          0  USEFUL:          0  USELESS:          0
cpu0_DTLB AVERAGE MISS LATENCY: 19.0926 cycles
cpu0_ITLB TOTAL     ACCESS:    8332610  HIT:    8330553  MISS:       2057
cpu0_ITLB LOAD      ACCESS:    8332610  HIT:    8330553  MISS:       2057
cpu0_ITLB RFO       ACCESS:          0  HIT:          0  MISS:          0
cpu0_ITLB PREFETCH  ACCESS:          0  HIT:          0  MISS:          0
cpu0_ITLB WRITEBACK ACCESS:          0  HIT:          0  MISS:          0
cpu0_ITLB TRANSLATION ACCESS:          0  HIT:          0  MISS:          0
cpu0_ITLB PREFETCH  REQUESTED:          0  ISSUED:          0  USEFUL:          0  USELESS:          0
cpu0_ITLB AVERAGE MISS LATENCY: 15.6315 cycles
cpu0_L1I TOTAL     ACCESS:    1054828  HIT:    1050498  MISS:       4330
cpu0_L1I LOAD      ACCESS:    1054828  HIT:    1050498  MISS:       4330
cpu0_L1I RFO       ACCESS:          0  HIT:          0  MISS:          0
cpu0_L1I PREFETCH  ACCESS:          0  HIT:          0  MISS:          0
cpu0_L1I WRITEBACK ACCESS:          0  HIT:          0  MISS:          0
cpu0_L1I TRANSLATION ACCESS:          0  HIT:          0  MISS:          0
cpu0_L1I PREFETCH  REQUESTED:          0  ISSUED:          0  USEFUL:          0  USELESS:          0
cpu0_L1I AVERAGE MISS LATENCY: 91.8002 cycles
cpu0_STLB TOTAL     ACCESS:    1066911  HIT:      12796  MISS:    1054115
cpu0_STLB LOAD      ACCESS:    1065031  HIT:      11432  MISS:    1053599
cpu0_STLB RFO       ACCESS:       1880  HIT:       1364  MISS:        516
cpu0_STLB PREFETCH  ACCESS:          0  HIT:          0  MISS:          0
cpu0_STLB WRITEBACK ACCESS:          0  HIT:          0  MISS:          0
cpu0_STLB TRANSLATION ACCESS:          0  HIT:          0  MISS:          0
cpu0_STLB PREFETCH  REQUESTED:          0  ISSUED:          0  USEFUL:          0  USELESS:          0
cpu0_STLB AVERAGE MISS LATENCY: 9.76925 cycles
cpu0_L1D TOTAL     ACCESS:   10252899  HIT:    8498425  MISS:    1754474
cpu0_L1D LOAD      ACCESS:    6418877  HIT:    4678589  MISS:    1740288
cpu0_L1D RFO       ACCESS:    3337747  HIT:    3324688  MISS:      13059
cpu0_L1D PREFETCH  ACCESS:          0  HIT:          0  MISS:          0
cpu0_L1D WRITEBACK ACCESS:          0  HIT:          0  MISS:          0
cpu0_L1D TRANSLATION ACCESS:     496275  HIT:     495148  MISS:       1127
cpu0_L1D PREFETCH  REQUESTED:          0  ISSUED:          0  USEFUL:          0  USELESS:          0
cpu0_L1D AVERAGE MISS LATENCY: 146.754 cycles
cpu0_L2C TOTAL     ACCESS:    1775620  HIT:      23343  MISS:    1752277
cpu0_L2C LOAD      ACCESS:    1744618  HIT:       5922  MISS:    1738696
cpu0_L2C RFO       ACCESS:      13059  HIT:        137  MISS:      12922
cpu0_L2C PREFETCH  ACCESS:          0  HIT:          0  MISS:          0
cpu0_L2C WRITEBACK ACCESS:      16816  HIT:      16816  MISS:          0
cpu0_L2C TRANSLATION ACCESS:       1127  HIT:        468  MISS:        659
cpu0_L2C PREFETCH  REQUESTED:          0  ISSUED:          0  USEFUL:          0  USELESS:          0
cpu0_L2C AVERAGE MISS LATENCY: 135.57 cycles
LLC TOTAL     ACCESS:    1768989  HIT:    1230003  MISS:     538986
LLC LOAD      ACCESS:    1738696  HIT:    1212731  MISS:     525965
LLC RFO       ACCESS:      12922  HIT:       2027  MISS:      10895
LLC PREFETCH  ACCESS:          0  HIT:          0  MISS:          0
LLC WRITEBACK ACCESS:      16712  HIT:      14926  MISS:       1786
LLC TRANSLATION ACCESS:        659  HIT:        319  MISS:        340
LLC PREFETCH  REQUESTED:          0  ISSUED:          0  USEFUL:          0  USELESS:          0
LLC AVERAGE MISS LATENCY: 372.441 cycles

DRAM Statistics
 CHANNEL 0
 RQ ROW_BUFFER_HIT:      12394  ROW_BUFFER_MISS:     524567
 DBUS AVG_CONGESTED_CYCLE:    3.96814
 WQ ROW_BUFFER_HIT:       2371  ROW_BUFFER_MISS:       9770  FULL:          0


CPU 0 Branch Prediction Accuracy: 97.6159% MPKI: 7.87238 Average ROB Occupancy at Mispredict: 63.4038
Branch type MPKI
BRANCH_DIRECT_JUMP: 0.00032
BRANCH_INDIRECT: 0.08474
BRANCH_CONDITIONAL: 7.75802
BRANCH_DIRECT_CALL: 0.00068
BRANCH_INDIRECT_CALL: 0.00292
BRANCH_RETURN: 0.0257

