
*** ChampSim Multicore Out-of-Order Simulator ***

Warmup Instructions: 10000000
Simulation Instructions: 100000000
Number of CPUs: 1
Off-chip DRAM Size: 4 GiB Channels: 1 Width: 64-bit Data Rate: 3200 MT/s

VirtualMemory physical capacity: 8588881920 num_ppages: 2096895
VirtualMemory page size: 4096 log2_page_size: 12

CPU 0 runs /datasets/cs240c-wi22-a00-public/data/Assignment2/soplex_205B.trace.xz
CPU 0 Bimodal branch predictor
Basic BTB sets: 1024 ways: 8 indirect buffer size: 4096 RAS size: 64
Heartbeat CPU 0 instructions: 10000002 cycles: 2865173 heartbeat IPC: 3.49019 cumulative IPC: 3.49019 (Simulation time: 0 hr 0 min 33 sec) 

Warmup complete CPU 0 instructions: 10000002 cycles: 2865173 (Simulation time: 0 hr 0 min 33 sec) 

Heartbeat CPU 0 instructions: 20000004 cycles: 50383163 heartbeat IPC: 0.210447 cumulative IPC: 0.210447 (Simulation time: 0 hr 3 min 30 sec) 
Heartbeat CPU 0 instructions: 30000004 cycles: 86375442 heartbeat IPC: 0.277837 cumulative IPC: 0.239492 (Simulation time: 0 hr 4 min 58 sec) 
Heartbeat CPU 0 instructions: 40000004 cycles: 117772085 heartbeat IPC: 0.318505 cumulative IPC: 0.261081 (Simulation time: 0 hr 6 min 41 sec) 
Heartbeat CPU 0 instructions: 50000001 cycles: 153934325 heartbeat IPC: 0.276531 cumulative IPC: 0.264779 (Simulation time: 0 hr 8 min 41 sec) 
Heartbeat CPU 0 instructions: 60000000 cycles: 185871941 heartbeat IPC: 0.31311 cumulative IPC: 0.273214 (Simulation time: 0 hr 10 min 28 sec) 
Heartbeat CPU 0 instructions: 70000000 cycles: 220250871 heartbeat IPC: 0.290876 cumulative IPC: 0.276007 (Simulation time: 0 hr 12 min 33 sec) 
Heartbeat CPU 0 instructions: 80000003 cycles: 254215300 heartbeat IPC: 0.294426 cumulative IPC: 0.278496 (Simulation time: 0 hr 14 min 26 sec) 
Heartbeat CPU 0 instructions: 90000000 cycles: 290211788 heartbeat IPC: 0.277805 cumulative IPC: 0.278409 (Simulation time: 0 hr 16 min 34 sec) 
Heartbeat CPU 0 instructions: 100000002 cycles: 322948329 heartbeat IPC: 0.305469 cumulative IPC: 0.281177 (Simulation time: 0 hr 18 min 20 sec) 
Heartbeat CPU 0 instructions: 110000000 cycles: 375483761 heartbeat IPC: 0.190348 cumulative IPC: 0.268371 (Simulation time: 0 hr 21 min 0 sec) 
Finished CPU 0 instructions: 100000003 cycles: 372618589 cumulative IPC: 0.268371 (Simulation time: 0 hr 21 min 0 sec) 

ChampSim completed all CPUs

Region of Interest Statistics

CPU 0 cumulative IPC: 0.268371 instructions: 100000003 cycles: 372618589
cpu0_DTLB TOTAL     ACCESS:   22332433  HIT:   21368973  MISS:     963460
cpu0_DTLB LOAD      ACCESS:   16562761  HIT:   15821797  MISS:     740964
cpu0_DTLB RFO       ACCESS:    5769672  HIT:    5547176  MISS:     222496
cpu0_DTLB PREFETCH  ACCESS:          0  HIT:          0  MISS:          0
cpu0_DTLB WRITEBACK ACCESS:          0  HIT:          0  MISS:          0
cpu0_DTLB TRANSLATION ACCESS:          0  HIT:          0  MISS:          0
cpu0_DTLB PREFETCH  REQUESTED:          0  ISSUED:          0  USEFUL:          0  USELESS:          0
cpu0_DTLB AVERAGE MISS LATENCY: 16.637 cycles
cpu0_ITLB TOTAL     ACCESS:    7887780  HIT:    7887763  MISS:         17
cpu0_ITLB LOAD      ACCESS:    7887780  HIT:    7887763  MISS:         17
cpu0_ITLB RFO       ACCESS:          0  HIT:          0  MISS:          0
cpu0_ITLB PREFETCH  ACCESS:          0  HIT:          0  MISS:          0
cpu0_ITLB WRITEBACK ACCESS:          0  HIT:          0  MISS:          0
cpu0_ITLB TRANSLATION ACCESS:          0  HIT:          0  MISS:          0
cpu0_ITLB PREFETCH  REQUESTED:          0  ISSUED:          0  USEFUL:          0  USELESS:          0
cpu0_ITLB AVERAGE MISS LATENCY: 245.176 cycles
cpu0_L1I TOTAL     ACCESS:     821655  HIT:     820882  MISS:        773
cpu0_L1I LOAD      ACCESS:     821655  HIT:     820882  MISS:        773
cpu0_L1I RFO       ACCESS:          0  HIT:          0  MISS:          0
cpu0_L1I PREFETCH  ACCESS:          0  HIT:          0  MISS:          0
cpu0_L1I WRITEBACK ACCESS:          0  HIT:          0  MISS:          0
cpu0_L1I TRANSLATION ACCESS:          0  HIT:          0  MISS:          0
cpu0_L1I PREFETCH  REQUESTED:          0  ISSUED:          0  USEFUL:          0  USELESS:          0
cpu0_L1I AVERAGE MISS LATENCY: 332.799 cycles
cpu0_STLB TOTAL     ACCESS:     963477  HIT:     807915  MISS:     155562
cpu0_STLB LOAD      ACCESS:     740981  HIT:     596249  MISS:     144732
cpu0_STLB RFO       ACCESS:     222496  HIT:     211666  MISS:      10830
cpu0_STLB PREFETCH  ACCESS:          0  HIT:          0  MISS:          0
cpu0_STLB WRITEBACK ACCESS:          0  HIT:          0  MISS:          0
cpu0_STLB TRANSLATION ACCESS:          0  HIT:          0  MISS:          0
cpu0_STLB PREFETCH  REQUESTED:          0  ISSUED:          0  USEFUL:          0  USELESS:          0
cpu0_STLB AVERAGE MISS LATENCY: 46.3788 cycles
cpu0_L1D TOTAL     ACCESS:   19208150  HIT:   13417756  MISS:    5790394
cpu0_L1D LOAD      ACCESS:   12615445  HIT:    7781053  MISS:    4834392
cpu0_L1D RFO       ACCESS:    6441157  HIT:    5490797  MISS:     950360
cpu0_L1D PREFETCH  ACCESS:          0  HIT:          0  MISS:          0
cpu0_L1D WRITEBACK ACCESS:          0  HIT:          0  MISS:          0
cpu0_L1D TRANSLATION ACCESS:     151548  HIT:     145906  MISS:       5642
cpu0_L1D PREFETCH  REQUESTED:          0  ISSUED:          0  USEFUL:          0  USELESS:          0
cpu0_L1D AVERAGE MISS LATENCY: 272.354 cycles
cpu0_L2C TOTAL     ACCESS:    8360533  HIT:    3854480  MISS:    4506053
cpu0_L2C LOAD      ACCESS:    4834728  HIT:    1130919  MISS:    3703809
cpu0_L2C RFO       ACCESS:     950286  HIT:     148936  MISS:     801350
cpu0_L2C PREFETCH  ACCESS:          0  HIT:          0  MISS:          0
cpu0_L2C WRITEBACK ACCESS:    2569877  HIT:    2569804  MISS:         73
cpu0_L2C TRANSLATION ACCESS:       5642  HIT:       4821  MISS:        821
cpu0_L2C PREFETCH  REQUESTED:          0  ISSUED:          0  USEFUL:          0  USELESS:          0
cpu0_L2C AVERAGE MISS LATENCY: 335.681 cycles
LLC TOTAL     ACCESS:    6406352  HIT:    3105724  MISS:    3300628
LLC LOAD      ACCESS:    3703792  HIT:     993299  MISS:    2710493
LLC RFO       ACCESS:     801339  HIT:     229225  MISS:     572114
LLC PREFETCH  ACCESS:          0  HIT:          0  MISS:          0
LLC WRITEBACK ACCESS:    1900400  HIT:    1882760  MISS:      17640
LLC TRANSLATION ACCESS:        821  HIT:        440  MISS:        381
LLC PREFETCH  REQUESTED:          0  ISSUED:          0  USEFUL:          0  USELESS:          0
LLC AVERAGE MISS LATENCY: 429.604 cycles

DRAM Statistics
 CHANNEL 0
 RQ ROW_BUFFER_HIT:     413376  ROW_BUFFER_MISS:    2867181
 DBUS AVG_CONGESTED_CYCLE:    3.97188
 WQ ROW_BUFFER_HIT:      53035  ROW_BUFFER_MISS:    1285120  FULL:          0


CPU 0 Branch Prediction Accuracy: 93.3985% MPKI: 13.5305 Average ROB Occupancy at Mispredict: 49.5737
Branch type MPKI
BRANCH_DIRECT_JUMP: 0.00081
BRANCH_INDIRECT: 0.00022
BRANCH_CONDITIONAL: 13.5274
BRANCH_DIRECT_CALL: 0.00058
BRANCH_INDIRECT_CALL: 0.00056
BRANCH_RETURN: 0.00094

