
*** ChampSim Multicore Out-of-Order Simulator ***

Warmup Instructions: 10000000
Simulation Instructions: 100000000
Number of CPUs: 1
Off-chip DRAM Size: 4 GiB Channels: 1 Width: 64-bit Data Rate: 3200 MT/s

VirtualMemory physical capacity: 8588881920 num_ppages: 2096895
VirtualMemory page size: 4096 log2_page_size: 12

CPU 0 runs /datasets/cs240c-wi22-a00-public/data/Assignment2/wrf_1228B.trace.xz
CPU 0 Bimodal branch predictor
Basic BTB sets: 1024 ways: 8 indirect buffer size: 4096 RAS size: 64
Heartbeat CPU 0 instructions: 10000001 cycles: 3904477 heartbeat IPC: 2.56116 cumulative IPC: 2.56116 (Simulation time: 0 hr 0 min 59 sec) 

Warmup complete CPU 0 instructions: 10000001 cycles: 3904477 (Simulation time: 0 hr 0 min 59 sec) 

Heartbeat CPU 0 instructions: 20000001 cycles: 12794745 heartbeat IPC: 1.12483 cumulative IPC: 1.12483 (Simulation time: 0 hr 2 min 18 sec) 
Heartbeat CPU 0 instructions: 30000003 cycles: 25890873 heartbeat IPC: 0.763585 cumulative IPC: 0.909653 (Simulation time: 0 hr 4 min 1 sec) 
Heartbeat CPU 0 instructions: 40000003 cycles: 41811939 heartbeat IPC: 0.628099 cumulative IPC: 0.791401 (Simulation time: 0 hr 6 min 3 sec) 
Heartbeat CPU 0 instructions: 50000001 cycles: 51229546 heartbeat IPC: 1.06184 cumulative IPC: 0.845218 (Simulation time: 0 hr 7 min 25 sec) 
Heartbeat CPU 0 instructions: 60000003 cycles: 63182263 heartbeat IPC: 0.83663 cumulative IPC: 0.843486 (Simulation time: 0 hr 9 min 1 sec) 
Heartbeat CPU 0 instructions: 70000001 cycles: 77419370 heartbeat IPC: 0.70239 cumulative IPC: 0.816161 (Simulation time: 0 hr 10 min 38 sec) 
Heartbeat CPU 0 instructions: 80000004 cycles: 87129203 heartbeat IPC: 1.02988 cumulative IPC: 0.841096 (Simulation time: 0 hr 11 min 45 sec) 
Heartbeat CPU 0 instructions: 90000001 cycles: 96814198 heartbeat IPC: 1.03252 cumulative IPC: 0.861051 (Simulation time: 0 hr 12 min 51 sec) 
Heartbeat CPU 0 instructions: 100000002 cycles: 106492538 heartbeat IPC: 1.03324 cumulative IPC: 0.877295 (Simulation time: 0 hr 13 min 58 sec) 
Heartbeat CPU 0 instructions: 110000000 cycles: 116162701 heartbeat IPC: 1.03411 cumulative IPC: 0.890803 (Simulation time: 0 hr 15 min 6 sec) 
Finished CPU 0 instructions: 100000004 cycles: 112258225 cumulative IPC: 0.890803 (Simulation time: 0 hr 15 min 6 sec) 

ChampSim completed all CPUs

Region of Interest Statistics

CPU 0 cumulative IPC: 0.890803 instructions: 100000004 cycles: 112258225
cpu0_DTLB TOTAL     ACCESS:   19748940  HIT:   19652701  MISS:      96239
cpu0_DTLB LOAD      ACCESS:   17721881  HIT:   17639950  MISS:      81931
cpu0_DTLB RFO       ACCESS:    2027059  HIT:    2012751  MISS:      14308
cpu0_DTLB PREFETCH  ACCESS:          0  HIT:          0  MISS:          0
cpu0_DTLB WRITEBACK ACCESS:          0  HIT:          0  MISS:          0
cpu0_DTLB TRANSLATION ACCESS:          0  HIT:          0  MISS:          0
cpu0_DTLB PREFETCH  REQUESTED:          0  ISSUED:          0  USEFUL:          0  USELESS:          0
cpu0_DTLB AVERAGE MISS LATENCY: 20.0813 cycles
cpu0_ITLB TOTAL     ACCESS:    4163544  HIT:    4163532  MISS:         12
cpu0_ITLB LOAD      ACCESS:    4163544  HIT:    4163532  MISS:         12
cpu0_ITLB RFO       ACCESS:          0  HIT:          0  MISS:          0
cpu0_ITLB PREFETCH  ACCESS:          0  HIT:          0  MISS:          0
cpu0_ITLB WRITEBACK ACCESS:          0  HIT:          0  MISS:          0
cpu0_ITLB TRANSLATION ACCESS:          0  HIT:          0  MISS:          0
cpu0_ITLB PREFETCH  REQUESTED:          0  ISSUED:          0  USEFUL:          0  USELESS:          0
cpu0_ITLB AVERAGE MISS LATENCY: 258.5 cycles
cpu0_L1I TOTAL     ACCESS:    6674234  HIT:    6673486  MISS:        748
cpu0_L1I LOAD      ACCESS:    6674234  HIT:    6673486  MISS:        748
cpu0_L1I RFO       ACCESS:          0  HIT:          0  MISS:          0
cpu0_L1I PREFETCH  ACCESS:          0  HIT:          0  MISS:          0
cpu0_L1I WRITEBACK ACCESS:          0  HIT:          0  MISS:          0
cpu0_L1I TRANSLATION ACCESS:          0  HIT:          0  MISS:          0
cpu0_L1I PREFETCH  REQUESTED:          0  ISSUED:          0  USEFUL:          0  USELESS:          0
cpu0_L1I AVERAGE MISS LATENCY: 331.119 cycles
cpu0_STLB TOTAL     ACCESS:      96251  HIT:      86697  MISS:       9554
cpu0_STLB LOAD      ACCESS:      81943  HIT:      75035  MISS:       6908
cpu0_STLB RFO       ACCESS:      14308  HIT:      11662  MISS:       2646
cpu0_STLB PREFETCH  ACCESS:          0  HIT:          0  MISS:          0
cpu0_STLB WRITEBACK ACCESS:          0  HIT:          0  MISS:          0
cpu0_STLB TRANSLATION ACCESS:          0  HIT:          0  MISS:          0
cpu0_STLB PREFETCH  REQUESTED:          0  ISSUED:          0  USEFUL:          0  USELESS:          0
cpu0_STLB AVERAGE MISS LATENCY: 111.917 cycles
cpu0_L1D TOTAL     ACCESS:   18831291  HIT:   17472933  MISS:    1358358
cpu0_L1D LOAD      ACCESS:   14801485  HIT:   13702477  MISS:    1099008
cpu0_L1D RFO       ACCESS:    4020262  HIT:    3761698  MISS:     258564
cpu0_L1D PREFETCH  ACCESS:          0  HIT:          0  MISS:          0
cpu0_L1D WRITEBACK ACCESS:          0  HIT:          0  MISS:          0
cpu0_L1D TRANSLATION ACCESS:       9544  HIT:       8758  MISS:        786
cpu0_L1D PREFETCH  REQUESTED:          0  ISSUED:          0  USEFUL:          0  USELESS:          0
cpu0_L1D AVERAGE MISS LATENCY: 272.662 cycles
cpu0_L2C TOTAL     ACCESS:    1836280  HIT:     802855  MISS:    1033425
cpu0_L2C LOAD      ACCESS:    1099742  HIT:     287119  MISS:     812623
cpu0_L2C RFO       ACCESS:     258561  HIT:      39544  MISS:     219017
cpu0_L2C PREFETCH  ACCESS:          0  HIT:          0  MISS:          0
cpu0_L2C WRITEBACK ACCESS:     477191  HIT:     475519  MISS:       1672
cpu0_L2C TRANSLATION ACCESS:        786  HIT:        673  MISS:        113
cpu0_L2C PREFETCH  REQUESTED:          0  ISSUED:          0  USEFUL:          0  USELESS:          0
cpu0_L2C AVERAGE MISS LATENCY: 344.147 cycles
LLC TOTAL     ACCESS:    1463788  HIT:     468297  MISS:     995491
LLC LOAD      ACCESS:     812623  HIT:      27201  MISS:     785422
LLC RFO       ACCESS:     219017  HIT:      12956  MISS:     206061
LLC PREFETCH  ACCESS:          0  HIT:          0  MISS:          0
LLC WRITEBACK ACCESS:     432035  HIT:     428095  MISS:       3940
LLC TRANSLATION ACCESS:        113  HIT:         45  MISS:         68
LLC PREFETCH  REQUESTED:          0  ISSUED:          0  USEFUL:          0  USELESS:          0
LLC AVERAGE MISS LATENCY: 335.496 cycles

DRAM Statistics
 CHANNEL 0
 RQ ROW_BUFFER_HIT:      99903  ROW_BUFFER_MISS:     891535
 DBUS AVG_CONGESTED_CYCLE:    3.95785
 WQ ROW_BUFFER_HIT:      29600  ROW_BUFFER_MISS:     374824  FULL:          0


CPU 0 Branch Prediction Accuracy: 97.4481% MPKI: 2.04611 Average ROB Occupancy at Mispredict: 260.962
Branch type MPKI
BRANCH_DIRECT_JUMP: 0.00028
BRANCH_INDIRECT: 0
BRANCH_CONDITIONAL: 2.0456
BRANCH_DIRECT_CALL: 0.00011
BRANCH_INDIRECT_CALL: 0
BRANCH_RETURN: 0.00012

