
*** ChampSim Multicore Out-of-Order Simulator ***

Warmup Instructions: 10000000
Simulation Instructions: 100000000
Number of CPUs: 1
Off-chip DRAM Size: 4 GiB Channels: 1 Width: 64-bit Data Rate: 3200 MT/s

VirtualMemory physical capacity: 8588881920 num_ppages: 2096895
VirtualMemory page size: 4096 log2_page_size: 12

CPU 0 runs /datasets/cs240c-wi22-a00-public/data/Assignment2/omnetpp_4B.trace.xz
CPU 0 Bimodal branch predictor
Basic BTB sets: 1024 ways: 8 indirect buffer size: 4096 RAS size: 64
Initialize Hawkeye state
Heartbeat CPU 0 instructions: 10000002 cycles: 2526523 heartbeat IPC: 3.95801 cumulative IPC: 3.95801 (Simulation time: 0 hr 0 min 24 sec) 

Warmup complete CPU 0 instructions: 10000002 cycles: 2526523 (Simulation time: 0 hr 0 min 24 sec) 

Heartbeat CPU 0 instructions: 20000000 cycles: 9576611 heartbeat IPC: 1.41842 cumulative IPC: 1.41842 (Simulation time: 0 hr 0 min 57 sec) 
Heartbeat CPU 0 instructions: 30000001 cycles: 17411004 heartbeat IPC: 1.27642 cumulative IPC: 1.34368 (Simulation time: 0 hr 1 min 38 sec) 
Heartbeat CPU 0 instructions: 40000002 cycles: 25109218 heartbeat IPC: 1.299 cumulative IPC: 1.32845 (Simulation time: 0 hr 2 min 20 sec) 
Heartbeat CPU 0 instructions: 50000000 cycles: 32559099 heartbeat IPC: 1.3423 cumulative IPC: 1.33189 (Simulation time: 0 hr 3 min 0 sec) 
Heartbeat CPU 0 instructions: 60000000 cycles: 40457096 heartbeat IPC: 1.26614 cumulative IPC: 1.3182 (Simulation time: 0 hr 3 min 43 sec) 
Heartbeat CPU 0 instructions: 70000000 cycles: 47899463 heartbeat IPC: 1.34366 cumulative IPC: 1.32237 (Simulation time: 0 hr 4 min 21 sec) 
Heartbeat CPU 0 instructions: 80000000 cycles: 55581371 heartbeat IPC: 1.30176 cumulative IPC: 1.31939 (Simulation time: 0 hr 5 min 5 sec) 
Heartbeat CPU 0 instructions: 90000000 cycles: 63743809 heartbeat IPC: 1.22512 cumulative IPC: 1.30682 (Simulation time: 0 hr 5 min 54 sec) 
Heartbeat CPU 0 instructions: 100000001 cycles: 70941345 heartbeat IPC: 1.38936 cumulative IPC: 1.3155 (Simulation time: 0 hr 6 min 33 sec) 
Heartbeat CPU 0 instructions: 110000002 cycles: 78918137 heartbeat IPC: 1.25364 cumulative IPC: 1.30904 (Simulation time: 0 hr 7 min 19 sec) 
Finished CPU 0 instructions: 100000000 cycles: 76391614 cumulative IPC: 1.30904 (Simulation time: 0 hr 7 min 19 sec) 

ChampSim completed all CPUs

Region of Interest Statistics

CPU 0 cumulative IPC: 1.30904 instructions: 100000000 cycles: 76391614
cpu0_DTLB TOTAL     ACCESS:   11765920  HIT:   10334021  MISS:    1431899
cpu0_DTLB LOAD      ACCESS:    9179746  HIT:    7749409  MISS:    1430337
cpu0_DTLB RFO       ACCESS:    2586174  HIT:    2584612  MISS:       1562
cpu0_DTLB PREFETCH  ACCESS:          0  HIT:          0  MISS:          0
cpu0_DTLB WRITEBACK ACCESS:          0  HIT:          0  MISS:          0
cpu0_DTLB TRANSLATION ACCESS:          0  HIT:          0  MISS:          0
cpu0_DTLB PREFETCH  REQUESTED:          0  ISSUED:          0  USEFUL:          0  USELESS:          0
cpu0_DTLB AVERAGE MISS LATENCY: 17.7004 cycles
cpu0_ITLB TOTAL     ACCESS:    7987563  HIT:    7963396  MISS:      24167
cpu0_ITLB LOAD      ACCESS:    7987563  HIT:    7963396  MISS:      24167
cpu0_ITLB RFO       ACCESS:          0  HIT:          0  MISS:          0
cpu0_ITLB PREFETCH  ACCESS:          0  HIT:          0  MISS:          0
cpu0_ITLB WRITEBACK ACCESS:          0  HIT:          0  MISS:          0
cpu0_ITLB TRANSLATION ACCESS:          0  HIT:          0  MISS:          0
cpu0_ITLB PREFETCH  REQUESTED:          0  ISSUED:          0  USEFUL:          0  USELESS:          0
cpu0_ITLB AVERAGE MISS LATENCY: 10.8435 cycles
cpu0_L1I TOTAL     ACCESS:    1939550  HIT:    1876706  MISS:      62844
cpu0_L1I LOAD      ACCESS:    1939550  HIT:    1876706  MISS:      62844
cpu0_L1I RFO       ACCESS:          0  HIT:          0  MISS:          0
cpu0_L1I PREFETCH  ACCESS:          0  HIT:          0  MISS:          0
cpu0_L1I WRITEBACK ACCESS:          0  HIT:          0  MISS:          0
cpu0_L1I TRANSLATION ACCESS:          0  HIT:          0  MISS:          0
cpu0_L1I PREFETCH  REQUESTED:          0  ISSUED:          0  USEFUL:          0  USELESS:          0
cpu0_L1I AVERAGE MISS LATENCY: 49.0183 cycles
cpu0_STLB TOTAL     ACCESS:    1456066  HIT:      23517  MISS:    1432549
cpu0_STLB LOAD      ACCESS:    1454504  HIT:      22772  MISS:    1431732
cpu0_STLB RFO       ACCESS:       1562  HIT:        745  MISS:        817
cpu0_STLB PREFETCH  ACCESS:          0  HIT:          0  MISS:          0
cpu0_STLB WRITEBACK ACCESS:          0  HIT:          0  MISS:          0
cpu0_STLB TRANSLATION ACCESS:          0  HIT:          0  MISS:          0
cpu0_STLB PREFETCH  REQUESTED:          0  ISSUED:          0  USEFUL:          0  USELESS:          0
cpu0_STLB AVERAGE MISS LATENCY: 8.30836 cycles
cpu0_L1D TOTAL     ACCESS:   12768644  HIT:   10278740  MISS:    2489904
cpu0_L1D LOAD      ACCESS:    7423858  HIT:    4972652  MISS:    2451206
cpu0_L1D RFO       ACCESS:    4650645  HIT:    4612937  MISS:      37708
cpu0_L1D PREFETCH  ACCESS:          0  HIT:          0  MISS:          0
cpu0_L1D WRITEBACK ACCESS:          0  HIT:          0  MISS:          0
cpu0_L1D TRANSLATION ACCESS:     694141  HIT:     693151  MISS:        990
cpu0_L1D PREFETCH  REQUESTED:          0  ISSUED:          0  USEFUL:          0  USELESS:          0
cpu0_L1D AVERAGE MISS LATENCY: 94.0538 cycles
cpu0_L2C TOTAL     ACCESS:    2633695  HIT:     114318  MISS:    2519377
cpu0_L2C LOAD      ACCESS:    2514049  HIT:      32382  MISS:    2481667
cpu0_L2C RFO       ACCESS:      37708  HIT:        794  MISS:      36914
cpu0_L2C PREFETCH  ACCESS:          0  HIT:          0  MISS:          0
cpu0_L2C WRITEBACK ACCESS:      80948  HIT:      80948  MISS:          0
cpu0_L2C TRANSLATION ACCESS:        990  HIT:        194  MISS:        796
cpu0_L2C PREFETCH  REQUESTED:          0  ISSUED:          0  USEFUL:          0  USELESS:          0
cpu0_L2C AVERAGE MISS LATENCY: 82.4898 cycles
LLC TOTAL     ACCESS:    2598918  HIT:    2078850  MISS:     520068
LLC LOAD      ACCESS:    2481667  HIT:    1987618  MISS:     494049
LLC RFO       ACCESS:      36914  HIT:      16936  MISS:      19978
LLC PREFETCH  ACCESS:          0  HIT:          0  MISS:          0
LLC WRITEBACK ACCESS:      79541  HIT:      73708  MISS:       5833
LLC TRANSLATION ACCESS:        796  HIT:        588  MISS:        208
LLC PREFETCH  REQUESTED:          0  ISSUED:          0  USEFUL:          0  USELESS:          0
LLC AVERAGE MISS LATENCY: 297.815 cycles
OPTgen accesses: 44262
OPTgen hits: 39313
OPTgen hit rate: 88.8189



DRAM Statistics
 CHANNEL 0
 RQ ROW_BUFFER_HIT:      24168  ROW_BUFFER_MISS:     486421
 DBUS AVG_CONGESTED_CYCLE:    3.94903
 WQ ROW_BUFFER_HIT:       6350  ROW_BUFFER_MISS:      46509  FULL:          0


CPU 0 Branch Prediction Accuracy: 97.4293% MPKI: 8.26178 Average ROB Occupancy at Mispredict: 57.0677
Branch type MPKI
BRANCH_DIRECT_JUMP: 0.00037
BRANCH_INDIRECT: 0.12485
BRANCH_CONDITIONAL: 8.10493
BRANCH_DIRECT_CALL: 0.00326
BRANCH_INDIRECT_CALL: 0.00558
BRANCH_RETURN: 0.02279

