
*** ChampSim Multicore Out-of-Order Simulator ***

Warmup Instructions: 10000000
Simulation Instructions: 100000000
Number of CPUs: 1
Off-chip DRAM Size: 4 GiB Channels: 1 Width: 64-bit Data Rate: 3200 MT/s

VirtualMemory physical capacity: 8588881920 num_ppages: 2096895
VirtualMemory page size: 4096 log2_page_size: 12

CPU 0 runs /datasets/cs240c-wi22-a00-public/data/Assignment2/h264ref_178B.trace.xz
CPU 0 Bimodal branch predictor
Basic BTB sets: 1024 ways: 8 indirect buffer size: 4096 RAS size: 64
Initialize SRRIP state
Heartbeat CPU 0 instructions: 10000000 cycles: 3417071 heartbeat IPC: 2.92648 cumulative IPC: 2.92648 (Simulation time: 0 hr 0 min 48 sec) 

Warmup complete CPU 0 instructions: 10000002 cycles: 3417073 (Simulation time: 0 hr 0 min 48 sec) 

Heartbeat CPU 0 instructions: 20000003 cycles: 9539736 heartbeat IPC: 1.63328 cumulative IPC: 1.63328 (Simulation time: 0 hr 1 min 56 sec) 
Heartbeat CPU 0 instructions: 30000002 cycles: 15247165 heartbeat IPC: 1.7521 cumulative IPC: 1.6906 (Simulation time: 0 hr 3 min 0 sec) 
Heartbeat CPU 0 instructions: 40000002 cycles: 21078128 heartbeat IPC: 1.71498 cumulative IPC: 1.69865 (Simulation time: 0 hr 3 min 46 sec) 
Heartbeat CPU 0 instructions: 50000004 cycles: 28304139 heartbeat IPC: 1.38389 cumulative IPC: 1.60726 (Simulation time: 0 hr 4 min 43 sec) 
Heartbeat CPU 0 instructions: 60000004 cycles: 34401009 heartbeat IPC: 1.64019 cumulative IPC: 1.61374 (Simulation time: 0 hr 5 min 52 sec) 
Heartbeat CPU 0 instructions: 70000003 cycles: 39885270 heartbeat IPC: 1.8234 cumulative IPC: 1.64527 (Simulation time: 0 hr 6 min 47 sec) 
Heartbeat CPU 0 instructions: 80000001 cycles: 47644768 heartbeat IPC: 1.28874 cumulative IPC: 1.58272 (Simulation time: 0 hr 7 min 32 sec) 
Heartbeat CPU 0 instructions: 90000004 cycles: 53954265 heartbeat IPC: 1.58491 cumulative IPC: 1.58299 (Simulation time: 0 hr 8 min 36 sec) 
Heartbeat CPU 0 instructions: 100000000 cycles: 59976094 heartbeat IPC: 1.66062 cumulative IPC: 1.59126 (Simulation time: 0 hr 9 min 42 sec) 
Heartbeat CPU 0 instructions: 110000003 cycles: 65968998 heartbeat IPC: 1.66864 cumulative IPC: 1.59867 (Simulation time: 0 hr 10 min 31 sec) 
Finished CPU 0 instructions: 100000001 cycles: 62551925 cumulative IPC: 1.59867 (Simulation time: 0 hr 10 min 31 sec) 

ChampSim completed all CPUs

Region of Interest Statistics

CPU 0 cumulative IPC: 1.59867 instructions: 100000001 cycles: 62551925
cpu0_DTLB TOTAL     ACCESS:   21806511  HIT:   21679805  MISS:     126706
cpu0_DTLB LOAD      ACCESS:   18463354  HIT:   18369712  MISS:      93642
cpu0_DTLB RFO       ACCESS:    3343157  HIT:    3310093  MISS:      33064
cpu0_DTLB PREFETCH  ACCESS:          0  HIT:          0  MISS:          0
cpu0_DTLB WRITEBACK ACCESS:          0  HIT:          0  MISS:          0
cpu0_DTLB TRANSLATION ACCESS:          0  HIT:          0  MISS:          0
cpu0_DTLB PREFETCH  REQUESTED:          0  ISSUED:          0  USEFUL:          0  USELESS:          0
cpu0_DTLB AVERAGE MISS LATENCY: 9.88663 cycles
cpu0_ITLB TOTAL     ACCESS:    5587151  HIT:    5586808  MISS:        343
cpu0_ITLB LOAD      ACCESS:    5587151  HIT:    5586808  MISS:        343
cpu0_ITLB RFO       ACCESS:          0  HIT:          0  MISS:          0
cpu0_ITLB PREFETCH  ACCESS:          0  HIT:          0  MISS:          0
cpu0_ITLB WRITEBACK ACCESS:          0  HIT:          0  MISS:          0
cpu0_ITLB TRANSLATION ACCESS:          0  HIT:          0  MISS:          0
cpu0_ITLB PREFETCH  REQUESTED:          0  ISSUED:          0  USEFUL:          0  USELESS:          0
cpu0_ITLB AVERAGE MISS LATENCY: 9.86006 cycles
cpu0_L1I TOTAL     ACCESS:    5690039  HIT:    5675527  MISS:      14512
cpu0_L1I LOAD      ACCESS:    5690039  HIT:    5675527  MISS:      14512
cpu0_L1I RFO       ACCESS:          0  HIT:          0  MISS:          0
cpu0_L1I PREFETCH  ACCESS:          0  HIT:          0  MISS:          0
cpu0_L1I WRITEBACK ACCESS:          0  HIT:          0  MISS:          0
cpu0_L1I TRANSLATION ACCESS:          0  HIT:          0  MISS:          0
cpu0_L1I PREFETCH  REQUESTED:          0  ISSUED:          0  USEFUL:          0  USELESS:          0
cpu0_L1I AVERAGE MISS LATENCY: 47.7472 cycles
cpu0_STLB TOTAL     ACCESS:     127049  HIT:     126281  MISS:        768
cpu0_STLB LOAD      ACCESS:      93985  HIT:      93608  MISS:        377
cpu0_STLB RFO       ACCESS:      33064  HIT:      32673  MISS:        391
cpu0_STLB PREFETCH  ACCESS:          0  HIT:          0  MISS:          0
cpu0_STLB WRITEBACK ACCESS:          0  HIT:          0  MISS:          0
cpu0_STLB TRANSLATION ACCESS:          0  HIT:          0  MISS:          0
cpu0_STLB PREFETCH  REQUESTED:          0  ISSUED:          0  USEFUL:          0  USELESS:          0
cpu0_STLB AVERAGE MISS LATENCY: 145.241 cycles
cpu0_L1D TOTAL     ACCESS:   23021918  HIT:   22708925  MISS:     312993
cpu0_L1D LOAD      ACCESS:   17160393  HIT:   16938218  MISS:     222175
cpu0_L1D RFO       ACCESS:    5860847  HIT:    5770164  MISS:      90683
cpu0_L1D PREFETCH  ACCESS:          0  HIT:          0  MISS:          0
cpu0_L1D WRITEBACK ACCESS:          0  HIT:          0  MISS:          0
cpu0_L1D TRANSLATION ACCESS:        678  HIT:        543  MISS:        135
cpu0_L1D PREFETCH  REQUESTED:          0  ISSUED:          0  USEFUL:          0  USELESS:          0
cpu0_L1D AVERAGE MISS LATENCY: 63.6511 cycles
cpu0_L2C TOTAL     ACCESS:     419943  HIT:     239002  MISS:     180941
cpu0_L2C LOAD      ACCESS:     236684  HIT:     140958  MISS:      95726
cpu0_L2C RFO       ACCESS:      90681  HIT:       5586  MISS:      85095
cpu0_L2C PREFETCH  ACCESS:          0  HIT:          0  MISS:          0
cpu0_L2C WRITEBACK ACCESS:      92443  HIT:      92337  MISS:        106
cpu0_L2C TRANSLATION ACCESS:        135  HIT:        121  MISS:         14
cpu0_L2C PREFETCH  REQUESTED:          0  ISSUED:          0  USEFUL:          0  USELESS:          0
cpu0_L2C AVERAGE MISS LATENCY: 93.9476 cycles
LLC TOTAL     ACCESS:     270599  HIT:     198254  MISS:      72345
LLC LOAD      ACCESS:      95726  HIT:      65172  MISS:      30554
LLC RFO       ACCESS:      85095  HIT:      49591  MISS:      35504
LLC PREFETCH  ACCESS:          0  HIT:          0  MISS:          0
LLC WRITEBACK ACCESS:      89764  HIT:      83478  MISS:       6286
LLC TRANSLATION ACCESS:         14  HIT:         13  MISS:          1
LLC PREFETCH  REQUESTED:          0  ISSUED:          0  USEFUL:          0  USELESS:          0
LLC AVERAGE MISS LATENCY: 182.475 cycles
Insertion Distribution: 
	LOAD 7032 0 32079 6331 
	RFO 7328 0 24401 7026 
	PREF 0 0 0 0 
	WRITEBACK 0 0 0 6286 
	 0 0 11 0 
Total Prefetch Downgrades: 0

DRAM Statistics
 CHANNEL 0
 RQ ROW_BUFFER_HIT:      19802  ROW_BUFFER_MISS:      46192
 DBUS AVG_CONGESTED_CYCLE:    3.90231
 WQ ROW_BUFFER_HIT:       3495  ROW_BUFFER_MISS:      24308  FULL:         67


CPU 0 Branch Prediction Accuracy: 94.363% MPKI: 4.48464 Average ROB Occupancy at Mispredict: 160.458
Branch type MPKI
BRANCH_DIRECT_JUMP: 0.00024
BRANCH_INDIRECT: 0.00166
BRANCH_CONDITIONAL: 4.48115
BRANCH_DIRECT_CALL: 6e-05
BRANCH_INDIRECT_CALL: 0.00061
BRANCH_RETURN: 0.00092

