
*** ChampSim Multicore Out-of-Order Simulator ***

Warmup Instructions: 10000000
Simulation Instructions: 100000000
Number of CPUs: 1
Off-chip DRAM Size: 4 GiB Channels: 1 Width: 64-bit Data Rate: 3200 MT/s

VirtualMemory physical capacity: 8588881920 num_ppages: 2096895
VirtualMemory page size: 4096 log2_page_size: 12

CPU 0 runs /Users/raghavprasad/brandon/Homework2/traces/bwaves_1861B.trace.xz
CPU 0 Bimodal branch predictor
Basic BTB sets: 1024 ways: 8 indirect buffer size: 4096 RAS size: 64
Initialize Hawkeye state
Heartbeat CPU 0 instructions: 10000002 cycles: 4727892 heartbeat IPC: 2.11511 cumulative IPC: 2.11511 (Simulation time: 0 hr 1 min 46 sec) 

Warmup complete CPU 0 instructions: 10000002 cycles: 4727892 (Simulation time: 0 hr 1 min 46 sec) 

Heartbeat CPU 0 instructions: 20000002 cycles: 38893141 heartbeat IPC: 0.292695 cumulative IPC: 0.292695 (Simulation time: 0 hr 5 min 40 sec) 
Heartbeat CPU 0 instructions: 30000004 cycles: 73066171 heartbeat IPC: 0.292628 cumulative IPC: 0.292662 (Simulation time: 0 hr 9 min 23 sec) 
Heartbeat CPU 0 instructions: 40000002 cycles: 107227052 heartbeat IPC: 0.292732 cumulative IPC: 0.292685 (Simulation time: 0 hr 13 min 5 sec) 
Heartbeat CPU 0 instructions: 50000003 cycles: 141390847 heartbeat IPC: 0.292708 cumulative IPC: 0.292691 (Simulation time: 0 hr 16 min 45 sec) 
Heartbeat CPU 0 instructions: 60000000 cycles: 175555744 heartbeat IPC: 0.292698 cumulative IPC: 0.292692 (Simulation time: 0 hr 20 min 26 sec) 
Heartbeat CPU 0 instructions: 70000001 cycles: 209723467 heartbeat IPC: 0.292674 cumulative IPC: 0.292689 (Simulation time: 0 hr 24 min 9 sec) 
Heartbeat CPU 0 instructions: 80000001 cycles: 243885892 heartbeat IPC: 0.292719 cumulative IPC: 0.292694 (Simulation time: 0 hr 27 min 52 sec) 
Heartbeat CPU 0 instructions: 90000003 cycles: 271691214 heartbeat IPC: 0.359643 cumulative IPC: 0.299667 (Simulation time: 0 hr 31 min 15 sec) 
Heartbeat CPU 0 instructions: 100000002 cycles: 285241873 heartbeat IPC: 0.737971 cumulative IPC: 0.32084 (Simulation time: 0 hr 33 min 34 sec) 
Heartbeat CPU 0 instructions: 110000001 cycles: 305169500 heartbeat IPC: 0.501816 cumulative IPC: 0.332843 (Simulation time: 0 hr 36 min 31 sec) 
Finished CPU 0 instructions: 100000004 cycles: 300441609 cumulative IPC: 0.332843 (Simulation time: 0 hr 36 min 31 sec) 

ChampSim completed all CPUs

Region of Interest Statistics

CPU 0 cumulative IPC: 0.332843 instructions: 100000004 cycles: 300441609
cpu0_DTLB TOTAL     ACCESS:   32226620  HIT:   32190028  MISS:      36592
cpu0_DTLB LOAD      ACCESS:   30503280  HIT:   30467389  MISS:      35891
cpu0_DTLB RFO       ACCESS:    1723340  HIT:    1722639  MISS:        701
cpu0_DTLB PREFETCH  ACCESS:          0  HIT:          0  MISS:          0
cpu0_DTLB WRITEBACK ACCESS:          0  HIT:          0  MISS:          0
cpu0_DTLB TRANSLATION ACCESS:          0  HIT:          0  MISS:          0
cpu0_DTLB PREFETCH  REQUESTED:          0  ISSUED:          0  USEFUL:          0  USELESS:          0
cpu0_DTLB AVERAGE MISS LATENCY: 234.382 cycles
cpu0_ITLB TOTAL     ACCESS:    9876510  HIT:    9876508  MISS:          2
cpu0_ITLB LOAD      ACCESS:    9876510  HIT:    9876508  MISS:          2
cpu0_ITLB RFO       ACCESS:          0  HIT:          0  MISS:          0
cpu0_ITLB PREFETCH  ACCESS:          0  HIT:          0  MISS:          0
cpu0_ITLB WRITEBACK ACCESS:          0  HIT:          0  MISS:          0
cpu0_ITLB TRANSLATION ACCESS:          0  HIT:          0  MISS:          0
cpu0_ITLB PREFETCH  REQUESTED:          0  ISSUED:          0  USEFUL:          0  USELESS:          0
cpu0_ITLB AVERAGE MISS LATENCY: 238.5 cycles
cpu0_L1I TOTAL     ACCESS:         28  HIT:         12  MISS:         16
cpu0_L1I LOAD      ACCESS:         28  HIT:         12  MISS:         16
cpu0_L1I RFO       ACCESS:          0  HIT:          0  MISS:          0
cpu0_L1I PREFETCH  ACCESS:          0  HIT:          0  MISS:          0
cpu0_L1I WRITEBACK ACCESS:          0  HIT:          0  MISS:          0
cpu0_L1I TRANSLATION ACCESS:          0  HIT:          0  MISS:          0
cpu0_L1I PREFETCH  REQUESTED:          0  ISSUED:          0  USEFUL:          0  USELESS:          0
cpu0_L1I AVERAGE MISS LATENCY: 236.125 cycles
cpu0_STLB TOTAL     ACCESS:      36594  HIT:       1139  MISS:      35455
cpu0_STLB LOAD      ACCESS:      35893  HIT:       1139  MISS:      34754
cpu0_STLB RFO       ACCESS:        701  HIT:          0  MISS:        701
cpu0_STLB PREFETCH  ACCESS:          0  HIT:          0  MISS:          0
cpu0_STLB WRITEBACK ACCESS:          0  HIT:          0  MISS:          0
cpu0_STLB TRANSLATION ACCESS:          0  HIT:          0  MISS:          0
cpu0_STLB PREFETCH  REQUESTED:          0  ISSUED:          0  USEFUL:          0  USELESS:          0
cpu0_STLB AVERAGE MISS LATENCY: 232.129 cycles
cpu0_L1D TOTAL     ACCESS:   27690767  HIT:   25278705  MISS:    2412062
cpu0_L1D LOAD      ACCESS:   24987050  HIT:   22621801  MISS:    2365249
cpu0_L1D RFO       ACCESS:    2668262  HIT:    2623391  MISS:      44871
cpu0_L1D PREFETCH  ACCESS:          0  HIT:          0  MISS:          0
cpu0_L1D WRITEBACK ACCESS:          0  HIT:          0  MISS:          0
cpu0_L1D TRANSLATION ACCESS:      35455  HIT:      33513  MISS:       1942
cpu0_L1D PREFETCH  REQUESTED:          0  ISSUED:          0  USEFUL:          0  USELESS:          0
cpu0_L1D AVERAGE MISS LATENCY: 986.957 cycles
cpu0_L2C TOTAL     ACCESS:    2572724  HIT:     254901  MISS:    2317823
cpu0_L2C LOAD      ACCESS:    2365265  HIT:      92339  MISS:    2272926
cpu0_L2C RFO       ACCESS:      44871  HIT:          0  MISS:      44871
cpu0_L2C PREFETCH  ACCESS:          0  HIT:          0  MISS:          0
cpu0_L2C WRITEBACK ACCESS:     160646  HIT:     160641  MISS:          5
cpu0_L2C TRANSLATION ACCESS:       1942  HIT:       1921  MISS:         21
cpu0_L2C PREFETCH  REQUESTED:          0  ISSUED:          0  USEFUL:          0  USELESS:          0
cpu0_L2C AVERAGE MISS LATENCY: 1015.26 cycles
LLC TOTAL     ACCESS:    2473673  HIT:     128020  MISS:    2345653
LLC LOAD      ACCESS:    2272926  HIT:     102455  MISS:    2170471
LLC RFO       ACCESS:      44871  HIT:          0  MISS:      44871
LLC PREFETCH  ACCESS:          0  HIT:          0  MISS:          0
LLC WRITEBACK ACCESS:     155855  HIT:      25559  MISS:     130296
LLC TRANSLATION ACCESS:         21  HIT:          6  MISS:         15
LLC PREFETCH  REQUESTED:          0  ISSUED:          0  USEFUL:          0  USELESS:          0
LLC AVERAGE MISS LATENCY: 982.46 cycles
OPTgen accesses: 39773
OPTgen hits: 1936
OPTgen hit rate: 4.86762



DRAM Statistics
 CHANNEL 0
 RQ ROW_BUFFER_HIT:      23065  ROW_BUFFER_MISS:    2192292
 DBUS AVG_CONGESTED_CYCLE:    3.96364
 WQ ROW_BUFFER_HIT:      18193  ROW_BUFFER_MISS:     125391  FULL:          0


CPU 0 Branch Prediction Accuracy: 70.4481% MPKI: 17.8647 Average ROB Occupancy at Mispredict: 234.831
Branch type MPKI
BRANCH_DIRECT_JUMP: 2e-05
BRANCH_INDIRECT: 0
BRANCH_CONDITIONAL: 17.8646
BRANCH_DIRECT_CALL: 0
BRANCH_INDIRECT_CALL: 0
BRANCH_RETURN: 1e-05

