
*** ChampSim Multicore Out-of-Order Simulator ***

Warmup Instructions: 10000000
Simulation Instructions: 100000000
Number of CPUs: 1
Off-chip DRAM Size: 4 GiB Channels: 1 Width: 64-bit Data Rate: 3200 MT/s

VirtualMemory physical capacity: 8588881920 num_ppages: 2096895
VirtualMemory page size: 4096 log2_page_size: 12

CPU 0 runs /Users/raghavprasad/brandon/Homework2/traces/GemsFDTD_712B.trace.xz
CPU 0 Bimodal branch predictor
Basic BTB sets: 1024 ways: 8 indirect buffer size: 4096 RAS size: 64
Initialize Hawkeye state
Heartbeat CPU 0 instructions: 10000003 cycles: 4479620 heartbeat IPC: 2.23233 cumulative IPC: 2.23233 (Simulation time: 0 hr 1 min 34 sec) 

Warmup complete CPU 0 instructions: 10000003 cycles: 4479620 (Simulation time: 0 hr 1 min 34 sec) 

Heartbeat CPU 0 instructions: 20000000 cycles: 44394121 heartbeat IPC: 0.250535 cumulative IPC: 0.250535 (Simulation time: 0 hr 8 min 13 sec) 
Heartbeat CPU 0 instructions: 30000004 cycles: 84367084 heartbeat IPC: 0.250169 cumulative IPC: 0.250352 (Simulation time: 0 hr 14 min 43 sec) 
Heartbeat CPU 0 instructions: 40000003 cycles: 124185535 heartbeat IPC: 0.25114 cumulative IPC: 0.250614 (Simulation time: 0 hr 21 min 9 sec) 
Heartbeat CPU 0 instructions: 50000003 cycles: 164138339 heartbeat IPC: 0.250295 cumulative IPC: 0.250534 (Simulation time: 0 hr 27 min 38 sec) 
Heartbeat CPU 0 instructions: 60000003 cycles: 203819711 heartbeat IPC: 0.252007 cumulative IPC: 0.250828 (Simulation time: 0 hr 34 min 13 sec) 
Heartbeat CPU 0 instructions: 70000002 cycles: 243553731 heartbeat IPC: 0.251673 cumulative IPC: 0.250968 (Simulation time: 0 hr 40 min 57 sec) 
Heartbeat CPU 0 instructions: 80000000 cycles: 278380330 heartbeat IPC: 0.287137 cumulative IPC: 0.255567 (Simulation time: 0 hr 45 min 4 sec) 
Heartbeat CPU 0 instructions: 90000000 cycles: 313580085 heartbeat IPC: 0.284093 cumulative IPC: 0.258816 (Simulation time: 0 hr 49 min 2 sec) 
Heartbeat CPU 0 instructions: 100000001 cycles: 348365967 heartbeat IPC: 0.287473 cumulative IPC: 0.261714 (Simulation time: 0 hr 52 min 59 sec) 
Heartbeat CPU 0 instructions: 110000002 cycles: 381876297 heartbeat IPC: 0.298415 cumulative IPC: 0.264973 (Simulation time: 0 hr 56 min 46 sec) 
Finished CPU 0 instructions: 100000004 cycles: 377396678 cumulative IPC: 0.264973 (Simulation time: 0 hr 56 min 46 sec) 

ChampSim completed all CPUs

Region of Interest Statistics

CPU 0 cumulative IPC: 0.264973 instructions: 100000004 cycles: 377396678
cpu0_DTLB TOTAL     ACCESS:   29842007  HIT:   29639361  MISS:     202646
cpu0_DTLB LOAD      ACCESS:   23899799  HIT:   23697153  MISS:     202646
cpu0_DTLB RFO       ACCESS:    5942208  HIT:    5942208  MISS:          0
cpu0_DTLB PREFETCH  ACCESS:          0  HIT:          0  MISS:          0
cpu0_DTLB WRITEBACK ACCESS:          0  HIT:          0  MISS:          0
cpu0_DTLB TRANSLATION ACCESS:          0  HIT:          0  MISS:          0
cpu0_DTLB PREFETCH  REQUESTED:          0  ISSUED:          0  USEFUL:          0  USELESS:          0
cpu0_DTLB AVERAGE MISS LATENCY: 158.133 cycles
cpu0_ITLB TOTAL     ACCESS:    1686181  HIT:    1686175  MISS:          6
cpu0_ITLB LOAD      ACCESS:    1686181  HIT:    1686175  MISS:          6
cpu0_ITLB RFO       ACCESS:          0  HIT:          0  MISS:          0
cpu0_ITLB PREFETCH  ACCESS:          0  HIT:          0  MISS:          0
cpu0_ITLB WRITEBACK ACCESS:          0  HIT:          0  MISS:          0
cpu0_ITLB TRANSLATION ACCESS:          0  HIT:          0  MISS:          0
cpu0_ITLB PREFETCH  REQUESTED:          0  ISSUED:          0  USEFUL:          0  USELESS:          0
cpu0_ITLB AVERAGE MISS LATENCY: 334.167 cycles
cpu0_L1I TOTAL     ACCESS:    3165518  HIT:    3165423  MISS:         95
cpu0_L1I LOAD      ACCESS:    3165518  HIT:    3165423  MISS:         95
cpu0_L1I RFO       ACCESS:          0  HIT:          0  MISS:          0
cpu0_L1I PREFETCH  ACCESS:          0  HIT:          0  MISS:          0
cpu0_L1I WRITEBACK ACCESS:          0  HIT:          0  MISS:          0
cpu0_L1I TRANSLATION ACCESS:          0  HIT:          0  MISS:          0
cpu0_L1I PREFETCH  REQUESTED:          0  ISSUED:          0  USEFUL:          0  USELESS:          0
cpu0_L1I AVERAGE MISS LATENCY: 494.737 cycles
cpu0_STLB TOTAL     ACCESS:     202652  HIT:      49544  MISS:     153108
cpu0_STLB LOAD      ACCESS:     202652  HIT:      49544  MISS:     153108
cpu0_STLB RFO       ACCESS:          0  HIT:          0  MISS:          0
cpu0_STLB PREFETCH  ACCESS:          0  HIT:          0  MISS:          0
cpu0_STLB WRITEBACK ACCESS:          0  HIT:          0  MISS:          0
cpu0_STLB TRANSLATION ACCESS:          0  HIT:          0  MISS:          0
cpu0_STLB PREFETCH  REQUESTED:          0  ISSUED:          0  USEFUL:          0  USELESS:          0
cpu0_STLB AVERAGE MISS LATENCY: 197.332 cycles
cpu0_L1D TOTAL     ACCESS:   29761210  HIT:   26413161  MISS:    3348049
cpu0_L1D LOAD      ACCESS:   18529278  HIT:   15183422  MISS:    3345856
cpu0_L1D RFO       ACCESS:   11079382  HIT:   11079362  MISS:         20
cpu0_L1D PREFETCH  ACCESS:          0  HIT:          0  MISS:          0
cpu0_L1D WRITEBACK ACCESS:          0  HIT:          0  MISS:          0
cpu0_L1D TRANSLATION ACCESS:     152550  HIT:     150377  MISS:       2173
cpu0_L1D PREFETCH  REQUESTED:          0  ISSUED:          0  USEFUL:          0  USELESS:          0
cpu0_L1D AVERAGE MISS LATENCY: 677.311 cycles
cpu0_L2C TOTAL     ACCESS:    4725115  HIT:    1561768  MISS:    3163347
cpu0_L2C LOAD      ACCESS:    3345951  HIT:     182712  MISS:    3163239
cpu0_L2C RFO       ACCESS:         20  HIT:          0  MISS:         20
cpu0_L2C PREFETCH  ACCESS:          0  HIT:          0  MISS:          0
cpu0_L2C WRITEBACK ACCESS:    1376971  HIT:    1376967  MISS:          4
cpu0_L2C TRANSLATION ACCESS:       2173  HIT:       2089  MISS:         84
cpu0_L2C PREFETCH  REQUESTED:          0  ISSUED:          0  USEFUL:          0  USELESS:          0
cpu0_L2C AVERAGE MISS LATENCY: 705.207 cycles
LLC TOTAL     ACCESS:    4539225  HIT:     673978  MISS:    3865247
LLC LOAD      ACCESS:    3163239  HIT:     595164  MISS:    2568075
LLC RFO       ACCESS:         20  HIT:          0  MISS:         20
LLC PREFETCH  ACCESS:          0  HIT:          0  MISS:          0
LLC WRITEBACK ACCESS:    1375882  HIT:      78773  MISS:    1297109
LLC TRANSLATION ACCESS:         84  HIT:         41  MISS:         43
LLC PREFETCH  REQUESTED:          0  ISSUED:          0  USEFUL:          0  USELESS:          0
LLC AVERAGE MISS LATENCY: 559.96 cycles
OPTgen accesses: 55476
OPTgen hits: 11504
OPTgen hit rate: 20.7369



DRAM Statistics
 CHANNEL 0
 RQ ROW_BUFFER_HIT:       8692  ROW_BUFFER_MISS:    2559446
 DBUS AVG_CONGESTED_CYCLE:    3.99779
 WQ ROW_BUFFER_HIT:      19030  ROW_BUFFER_MISS:    1354182  FULL:          0


CPU 0 Branch Prediction Accuracy: 90.9863% MPKI: 1.62566 Average ROB Occupancy at Mispredict: 227.523
Branch type MPKI
BRANCH_DIRECT_JUMP: 5e-05
BRANCH_INDIRECT: 0
BRANCH_CONDITIONAL: 1.62559
BRANCH_DIRECT_CALL: 1e-05
BRANCH_INDIRECT_CALL: 0
BRANCH_RETURN: 1e-05

