
*** ChampSim Multicore Out-of-Order Simulator ***

Warmup Instructions: 10000000
Simulation Instructions: 100000000
Number of CPUs: 1
Off-chip DRAM Size: 4 GiB Channels: 1 Width: 64-bit Data Rate: 3200 MT/s

VirtualMemory physical capacity: 8588881920 num_ppages: 2096895
VirtualMemory page size: 4096 log2_page_size: 12

CPU 0 runs /Users/raghavprasad/brandon/Homework2/traces/h264ref_351B.trace.xz
CPU 0 Bimodal branch predictor
Basic BTB sets: 1024 ways: 8 indirect buffer size: 4096 RAS size: 64
Initialize Hawkeye state
Heartbeat CPU 0 instructions: 10000003 cycles: 3499510 heartbeat IPC: 2.85754 cumulative IPC: 2.85754 (Simulation time: 0 hr 1 min 11 sec) 

Warmup complete CPU 0 instructions: 10000003 cycles: 3499510 (Simulation time: 0 hr 1 min 11 sec) 

Heartbeat CPU 0 instructions: 20000000 cycles: 12248911 heartbeat IPC: 1.14294 cumulative IPC: 1.14294 (Simulation time: 0 hr 2 min 2 sec) 
Heartbeat CPU 0 instructions: 30000000 cycles: 18596712 heartbeat IPC: 1.57535 cumulative IPC: 1.32475 (Simulation time: 0 hr 3 min 34 sec) 
Heartbeat CPU 0 instructions: 40000001 cycles: 24745867 heartbeat IPC: 1.62624 cumulative IPC: 1.41201 (Simulation time: 0 hr 5 min 8 sec) 
Heartbeat CPU 0 instructions: 50000000 cycles: 31354277 heartbeat IPC: 1.51322 cumulative IPC: 1.43602 (Simulation time: 0 hr 6 min 9 sec) 
Heartbeat CPU 0 instructions: 60000003 cycles: 39178772 heartbeat IPC: 1.27804 cumulative IPC: 1.40137 (Simulation time: 0 hr 7 min 8 sec) 
Heartbeat CPU 0 instructions: 70000001 cycles: 45255759 heartbeat IPC: 1.64555 cumulative IPC: 1.43691 (Simulation time: 0 hr 8 min 39 sec) 
Heartbeat CPU 0 instructions: 80000004 cycles: 51206745 heartbeat IPC: 1.68039 cumulative IPC: 1.46728 (Simulation time: 0 hr 10 min 8 sec) 
Heartbeat CPU 0 instructions: 90000004 cycles: 57985361 heartbeat IPC: 1.47523 cumulative IPC: 1.46827 (Simulation time: 0 hr 11 min 1 sec) 
Heartbeat CPU 0 instructions: 100000001 cycles: 65468579 heartbeat IPC: 1.33632 cumulative IPC: 1.45234 (Simulation time: 0 hr 12 min 8 sec) 
Heartbeat CPU 0 instructions: 110000001 cycles: 71564320 heartbeat IPC: 1.64049 cumulative IPC: 1.46919 (Simulation time: 0 hr 13 min 42 sec) 
Finished CPU 0 instructions: 100000003 cycles: 68064811 cumulative IPC: 1.46919 (Simulation time: 0 hr 13 min 42 sec) 

ChampSim completed all CPUs

Region of Interest Statistics

CPU 0 cumulative IPC: 1.46919 instructions: 100000003 cycles: 68064811
cpu0_DTLB TOTAL     ACCESS:   22000593  HIT:   21964709  MISS:      35884
cpu0_DTLB LOAD      ACCESS:   18623961  HIT:   18591186  MISS:      32775
cpu0_DTLB RFO       ACCESS:    3376632  HIT:    3373523  MISS:       3109
cpu0_DTLB PREFETCH  ACCESS:          0  HIT:          0  MISS:          0
cpu0_DTLB WRITEBACK ACCESS:          0  HIT:          0  MISS:          0
cpu0_DTLB TRANSLATION ACCESS:          0  HIT:          0  MISS:          0
cpu0_DTLB PREFETCH  REQUESTED:          0  ISSUED:          0  USEFUL:          0  USELESS:          0
cpu0_DTLB AVERAGE MISS LATENCY: 12.2006 cycles
cpu0_ITLB TOTAL     ACCESS:    6598997  HIT:    6598537  MISS:        460
cpu0_ITLB LOAD      ACCESS:    6598997  HIT:    6598537  MISS:        460
cpu0_ITLB RFO       ACCESS:          0  HIT:          0  MISS:          0
cpu0_ITLB PREFETCH  ACCESS:          0  HIT:          0  MISS:          0
cpu0_ITLB WRITEBACK ACCESS:          0  HIT:          0  MISS:          0
cpu0_ITLB TRANSLATION ACCESS:          0  HIT:          0  MISS:          0
cpu0_ITLB PREFETCH  REQUESTED:          0  ISSUED:          0  USEFUL:          0  USELESS:          0
cpu0_ITLB AVERAGE MISS LATENCY: 25.463 cycles
cpu0_L1I TOTAL     ACCESS:    4924843  HIT:    4899430  MISS:      25413
cpu0_L1I LOAD      ACCESS:    4924843  HIT:    4899430  MISS:      25413
cpu0_L1I RFO       ACCESS:          0  HIT:          0  MISS:          0
cpu0_L1I PREFETCH  ACCESS:          0  HIT:          0  MISS:          0
cpu0_L1I WRITEBACK ACCESS:          0  HIT:          0  MISS:          0
cpu0_L1I TRANSLATION ACCESS:          0  HIT:          0  MISS:          0
cpu0_L1I PREFETCH  REQUESTED:          0  ISSUED:          0  USEFUL:          0  USELESS:          0
cpu0_L1I AVERAGE MISS LATENCY: 40.7044 cycles
cpu0_STLB TOTAL     ACCESS:      36344  HIT:      35212  MISS:       1132
cpu0_STLB LOAD      ACCESS:      33235  HIT:      32335  MISS:        900
cpu0_STLB RFO       ACCESS:       3109  HIT:       2877  MISS:        232
cpu0_STLB PREFETCH  ACCESS:          0  HIT:          0  MISS:          0
cpu0_STLB WRITEBACK ACCESS:          0  HIT:          0  MISS:          0
cpu0_STLB TRANSLATION ACCESS:          0  HIT:          0  MISS:          0
cpu0_STLB PREFETCH  REQUESTED:          0  ISSUED:          0  USEFUL:          0  USELESS:          0
cpu0_STLB AVERAGE MISS LATENCY: 107.314 cycles
cpu0_L1D TOTAL     ACCESS:   23786428  HIT:   23472089  MISS:     314339
cpu0_L1D LOAD      ACCESS:   17651279  HIT:   17424381  MISS:     226898
cpu0_L1D RFO       ACCESS:    6134052  HIT:    6046853  MISS:      87199
cpu0_L1D PREFETCH  ACCESS:          0  HIT:          0  MISS:          0
cpu0_L1D WRITEBACK ACCESS:          0  HIT:          0  MISS:          0
cpu0_L1D TRANSLATION ACCESS:       1097  HIT:        855  MISS:        242
cpu0_L1D PREFETCH  REQUESTED:          0  ISSUED:          0  USEFUL:          0  USELESS:          0
cpu0_L1D AVERAGE MISS LATENCY: 77.0999 cycles
cpu0_L2C TOTAL     ACCESS:     428253  HIT:     237206  MISS:     191047
cpu0_L2C LOAD      ACCESS:     252311  HIT:     142059  MISS:     110252
cpu0_L2C RFO       ACCESS:      87199  HIT:       6600  MISS:      80599
cpu0_L2C PREFETCH  ACCESS:          0  HIT:          0  MISS:          0
cpu0_L2C WRITEBACK ACCESS:      88501  HIT:      88327  MISS:        174
cpu0_L2C TRANSLATION ACCESS:        242  HIT:        220  MISS:         22
cpu0_L2C PREFETCH  REQUESTED:          0  ISSUED:          0  USEFUL:          0  USELESS:          0
cpu0_L2C AVERAGE MISS LATENCY: 112.64 cycles
LLC TOTAL     ACCESS:     266187  HIT:     183767  MISS:      82420
LLC LOAD      ACCESS:     110251  HIT:      63032  MISS:      47219
LLC RFO       ACCESS:      80599  HIT:      50660  MISS:      29939
LLC PREFETCH  ACCESS:          0  HIT:          0  MISS:          0
LLC WRITEBACK ACCESS:      75315  HIT:      70054  MISS:       5261
LLC TRANSLATION ACCESS:         22  HIT:         21  MISS:          1
LLC PREFETCH  REQUESTED:          0  ISSUED:          0  USEFUL:          0  USELESS:          0
LLC AVERAGE MISS LATENCY: 212.459 cycles
OPTgen accesses: 3302
OPTgen hits: 2182
OPTgen hit rate: 66.0812



DRAM Statistics
 CHANNEL 0
 RQ ROW_BUFFER_HIT:      25122  ROW_BUFFER_MISS:      52010
 DBUS AVG_CONGESTED_CYCLE:    3.91715
 WQ ROW_BUFFER_HIT:       4438  ROW_BUFFER_MISS:      28686  FULL:          0


CPU 0 Branch Prediction Accuracy: 92.8368% MPKI: 5.81059 Average ROB Occupancy at Mispredict: 122.814
Branch type MPKI
BRANCH_DIRECT_JUMP: 0.00172
BRANCH_INDIRECT: 0.00314
BRANCH_CONDITIONAL: 5.80098
BRANCH_DIRECT_CALL: 0.00111
BRANCH_INDIRECT_CALL: 0.00157
BRANCH_RETURN: 0.00207

