
*** ChampSim Multicore Out-of-Order Simulator ***

Warmup Instructions: 10000000
Simulation Instructions: 100000000
Number of CPUs: 1
Off-chip DRAM Size: 4 GiB Channels: 1 Width: 64-bit Data Rate: 3200 MT/s

VirtualMemory physical capacity: 8588881920 num_ppages: 2096895
VirtualMemory page size: 4096 log2_page_size: 12

CPU 0 runs /Users/raghavprasad/brandon/Homework2/traces/hmmer_7B.trace.xz
CPU 0 Bimodal branch predictor
Basic BTB sets: 1024 ways: 8 indirect buffer size: 4096 RAS size: 64
Initialize Hawkeye state
Heartbeat CPU 0 instructions: 10000004 cycles: 3986073 heartbeat IPC: 2.50874 cumulative IPC: 2.50874 (Simulation time: 0 hr 1 min 22 sec) 

Warmup complete CPU 0 instructions: 10000004 cycles: 3986073 (Simulation time: 0 hr 1 min 22 sec) 

Heartbeat CPU 0 instructions: 20000004 cycles: 9229897 heartbeat IPC: 1.90701 cumulative IPC: 1.90701 (Simulation time: 0 hr 3 min 11 sec) 
Heartbeat CPU 0 instructions: 30000001 cycles: 14128905 heartbeat IPC: 2.04123 cumulative IPC: 1.97184 (Simulation time: 0 hr 4 min 56 sec) 
Heartbeat CPU 0 instructions: 40000001 cycles: 18676701 heartbeat IPC: 2.19887 cumulative IPC: 2.04212 (Simulation time: 0 hr 6 min 40 sec) 
Heartbeat CPU 0 instructions: 50000000 cycles: 23846640 heartbeat IPC: 1.93426 cumulative IPC: 2.01404 (Simulation time: 0 hr 8 min 27 sec) 
Heartbeat CPU 0 instructions: 60000000 cycles: 28192578 heartbeat IPC: 2.301 cumulative IPC: 2.06556 (Simulation time: 0 hr 10 min 12 sec) 
Heartbeat CPU 0 instructions: 70000003 cycles: 32520922 heartbeat IPC: 2.31035 cumulative IPC: 2.10269 (Simulation time: 0 hr 11 min 53 sec) 
Heartbeat CPU 0 instructions: 80000001 cycles: 36836224 heartbeat IPC: 2.31733 cumulative IPC: 2.13089 (Simulation time: 0 hr 13 min 34 sec) 
Heartbeat CPU 0 instructions: 90000004 cycles: 41167217 heartbeat IPC: 2.30894 cumulative IPC: 2.15163 (Simulation time: 0 hr 15 min 13 sec) 
Heartbeat CPU 0 instructions: 100000002 cycles: 45494317 heartbeat IPC: 2.31102 cumulative IPC: 2.16824 (Simulation time: 0 hr 16 min 53 sec) 
Heartbeat CPU 0 instructions: 110000001 cycles: 49824552 heartbeat IPC: 2.30934 cumulative IPC: 2.18157 (Simulation time: 0 hr 18 min 34 sec) 
Finished CPU 0 instructions: 100000002 cycles: 45838480 cumulative IPC: 2.18157 (Simulation time: 0 hr 18 min 34 sec) 

ChampSim completed all CPUs

Region of Interest Statistics

CPU 0 cumulative IPC: 2.18157 instructions: 100000002 cycles: 45838480
cpu0_DTLB TOTAL     ACCESS:   40545740  HIT:   40531582  MISS:      14158
cpu0_DTLB LOAD      ACCESS:   32390322  HIT:   32382597  MISS:       7725
cpu0_DTLB RFO       ACCESS:    8155418  HIT:    8148985  MISS:       6433
cpu0_DTLB PREFETCH  ACCESS:          0  HIT:          0  MISS:          0
cpu0_DTLB WRITEBACK ACCESS:          0  HIT:          0  MISS:          0
cpu0_DTLB TRANSLATION ACCESS:          0  HIT:          0  MISS:          0
cpu0_DTLB PREFETCH  REQUESTED:          0  ISSUED:          0  USEFUL:          0  USELESS:          0
cpu0_DTLB AVERAGE MISS LATENCY: 15.056 cycles
cpu0_ITLB TOTAL     ACCESS:     800583  HIT:     800511  MISS:         72
cpu0_ITLB LOAD      ACCESS:     800583  HIT:     800511  MISS:         72
cpu0_ITLB RFO       ACCESS:          0  HIT:          0  MISS:          0
cpu0_ITLB PREFETCH  ACCESS:          0  HIT:          0  MISS:          0
cpu0_ITLB WRITEBACK ACCESS:          0  HIT:          0  MISS:          0
cpu0_ITLB TRANSLATION ACCESS:          0  HIT:          0  MISS:          0
cpu0_ITLB PREFETCH  REQUESTED:          0  ISSUED:          0  USEFUL:          0  USELESS:          0
cpu0_ITLB AVERAGE MISS LATENCY: 21 cycles
cpu0_L1I TOTAL     ACCESS:      62029  HIT:      61924  MISS:        105
cpu0_L1I LOAD      ACCESS:      62029  HIT:      61924  MISS:        105
cpu0_L1I RFO       ACCESS:          0  HIT:          0  MISS:          0
cpu0_L1I PREFETCH  ACCESS:          0  HIT:          0  MISS:          0
cpu0_L1I WRITEBACK ACCESS:          0  HIT:          0  MISS:          0
cpu0_L1I TRANSLATION ACCESS:          0  HIT:          0  MISS:          0
cpu0_L1I PREFETCH  REQUESTED:          0  ISSUED:          0  USEFUL:          0  USELESS:          0
cpu0_L1I AVERAGE MISS LATENCY: 109.381 cycles
cpu0_STLB TOTAL     ACCESS:      14230  HIT:      13775  MISS:        455
cpu0_STLB LOAD      ACCESS:       7797  HIT:       7789  MISS:          8
cpu0_STLB RFO       ACCESS:       6433  HIT:       5986  MISS:        447
cpu0_STLB PREFETCH  ACCESS:          0  HIT:          0  MISS:          0
cpu0_STLB WRITEBACK ACCESS:          0  HIT:          0  MISS:          0
cpu0_STLB TRANSLATION ACCESS:          0  HIT:          0  MISS:          0
cpu0_STLB PREFETCH  REQUESTED:          0  ISSUED:          0  USEFUL:          0  USELESS:          0
cpu0_STLB AVERAGE MISS LATENCY: 190.138 cycles
cpu0_L1D TOTAL     ACCESS:   33382482  HIT:   32912417  MISS:     470065
cpu0_L1D LOAD      ACCESS:   28672372  HIT:   28511038  MISS:     161334
cpu0_L1D RFO       ACCESS:    4709656  HIT:    4400948  MISS:     308708
cpu0_L1D PREFETCH  ACCESS:          0  HIT:          0  MISS:          0
cpu0_L1D WRITEBACK ACCESS:          0  HIT:          0  MISS:          0
cpu0_L1D TRANSLATION ACCESS:        454  HIT:        431  MISS:         23
cpu0_L1D PREFETCH  REQUESTED:          0  ISSUED:          0  USEFUL:          0  USELESS:          0
cpu0_L1D AVERAGE MISS LATENCY: 251.973 cycles
cpu0_L2C TOTAL     ACCESS:     777008  HIT:     473562  MISS:     303446
cpu0_L2C LOAD      ACCESS:     161439  HIT:     148939  MISS:      12500
cpu0_L2C RFO       ACCESS:     308708  HIT:      17819  MISS:     290889
cpu0_L2C PREFETCH  ACCESS:          0  HIT:          0  MISS:          0
cpu0_L2C WRITEBACK ACCESS:     306838  HIT:     306790  MISS:         48
cpu0_L2C TRANSLATION ACCESS:         23  HIT:         14  MISS:          9
cpu0_L2C PREFETCH  REQUESTED:          0  ISSUED:          0  USEFUL:          0  USELESS:          0
cpu0_L2C AVERAGE MISS LATENCY: 373.31 cycles
LLC TOTAL     ACCESS:     593429  HIT:     439768  MISS:     153661
LLC LOAD      ACCESS:      12500  HIT:      10577  MISS:       1923
LLC RFO       ACCESS:     290889  HIT:     200174  MISS:      90715
LLC PREFETCH  ACCESS:          0  HIT:          0  MISS:          0
LLC WRITEBACK ACCESS:     290031  HIT:     229011  MISS:      61020
LLC TRANSLATION ACCESS:          9  HIT:          6  MISS:          3
LLC PREFETCH  REQUESTED:          0  ISSUED:          0  USEFUL:          0  USELESS:          0
LLC AVERAGE MISS LATENCY: 695.632 cycles
OPTgen accesses: 5338
OPTgen hits: 3727
OPTgen hit rate: 69.8202



DRAM Statistics
 CHANNEL 0
 RQ ROW_BUFFER_HIT:       1659  ROW_BUFFER_MISS:      90979
 DBUS AVG_CONGESTED_CYCLE:    3.99382
 WQ ROW_BUFFER_HIT:       4549  ROW_BUFFER_MISS:      85316  FULL:      17812


CPU 0 Branch Prediction Accuracy: 98.9368% MPKI: 0.40856 Average ROB Occupancy at Mispredict: 252.355
Branch type MPKI
BRANCH_DIRECT_JUMP: 0.00016
BRANCH_INDIRECT: 0.00157
BRANCH_CONDITIONAL: 0.40659
BRANCH_DIRECT_CALL: 9e-05
BRANCH_INDIRECT_CALL: 3e-05
BRANCH_RETURN: 0.00012

