
*** ChampSim Multicore Out-of-Order Simulator ***

Warmup Instructions: 10000000
Simulation Instructions: 100000000
Number of CPUs: 1
Off-chip DRAM Size: 4 GiB Channels: 1 Width: 64-bit Data Rate: 3200 MT/s

VirtualMemory physical capacity: 8588881920 num_ppages: 2096895
VirtualMemory page size: 4096 log2_page_size: 12

CPU 0 runs /Users/raghavprasad/brandon/Homework2/traces/lbm_94B.trace.xz
CPU 0 Bimodal branch predictor
Basic BTB sets: 1024 ways: 8 indirect buffer size: 4096 RAS size: 64
Initialize Hawkeye state
Heartbeat CPU 0 instructions: 10000000 cycles: 2544790 heartbeat IPC: 3.9296 cumulative IPC: 3.9296 (Simulation time: 0 hr 0 min 38 sec) 

Warmup complete CPU 0 instructions: 10000004 cycles: 2544791 (Simulation time: 0 hr 0 min 38 sec) 

Heartbeat CPU 0 instructions: 20000000 cycles: 34735410 heartbeat IPC: 0.31065 cumulative IPC: 0.310649 (Simulation time: 0 hr 4 min 4 sec) 
Heartbeat CPU 0 instructions: 30000004 cycles: 66604167 heartbeat IPC: 0.313787 cumulative IPC: 0.31221 (Simulation time: 0 hr 7 min 21 sec) 
Heartbeat CPU 0 instructions: 40000000 cycles: 98652785 heartbeat IPC: 0.312026 cumulative IPC: 0.312149 (Simulation time: 0 hr 10 min 36 sec) 
Heartbeat CPU 0 instructions: 50000001 cycles: 128952710 heartbeat IPC: 0.330034 cumulative IPC: 0.316436 (Simulation time: 0 hr 13 min 41 sec) 
Heartbeat CPU 0 instructions: 60000003 cycles: 158954052 heartbeat IPC: 0.333319 cumulative IPC: 0.319674 (Simulation time: 0 hr 16 min 42 sec) 
Heartbeat CPU 0 instructions: 70000001 cycles: 188518874 heartbeat IPC: 0.33824 cumulative IPC: 0.322626 (Simulation time: 0 hr 19 min 39 sec) 
Heartbeat CPU 0 instructions: 80000003 cycles: 218591646 heartbeat IPC: 0.332527 cumulative IPC: 0.324004 (Simulation time: 0 hr 22 min 40 sec) 
Heartbeat CPU 0 instructions: 90000003 cycles: 248820336 heartbeat IPC: 0.330812 cumulative IPC: 0.324839 (Simulation time: 0 hr 25 min 42 sec) 
Heartbeat CPU 0 instructions: 100000001 cycles: 278553437 heartbeat IPC: 0.336325 cumulative IPC: 0.326077 (Simulation time: 0 hr 28 min 39 sec) 
Heartbeat CPU 0 instructions: 110000003 cycles: 308940332 heartbeat IPC: 0.329089 cumulative IPC: 0.326376 (Simulation time: 0 hr 31 min 40 sec) 
Finished CPU 0 instructions: 100000004 cycles: 306395542 cumulative IPC: 0.326375 (Simulation time: 0 hr 31 min 40 sec) 

ChampSim completed all CPUs

Region of Interest Statistics

CPU 0 cumulative IPC: 0.326375 instructions: 100000004 cycles: 306395542
cpu0_DTLB TOTAL     ACCESS:   13206209  HIT:   13158457  MISS:      47752
cpu0_DTLB LOAD      ACCESS:    6754643  HIT:    6742695  MISS:      11948
cpu0_DTLB RFO       ACCESS:    6451566  HIT:    6415762  MISS:      35804
cpu0_DTLB PREFETCH  ACCESS:          0  HIT:          0  MISS:          0
cpu0_DTLB WRITEBACK ACCESS:          0  HIT:          0  MISS:          0
cpu0_DTLB TRANSLATION ACCESS:          0  HIT:          0  MISS:          0
cpu0_DTLB PREFETCH  REQUESTED:          0  ISSUED:          0  USEFUL:          0  USELESS:          0
cpu0_DTLB AVERAGE MISS LATENCY: 225.639 cycles
cpu0_ITLB TOTAL     ACCESS:     123349  HIT:     123349  MISS:          0
cpu0_ITLB LOAD      ACCESS:     123349  HIT:     123349  MISS:          0
cpu0_ITLB RFO       ACCESS:          0  HIT:          0  MISS:          0
cpu0_ITLB PREFETCH  ACCESS:          0  HIT:          0  MISS:          0
cpu0_ITLB WRITEBACK ACCESS:          0  HIT:          0  MISS:          0
cpu0_ITLB TRANSLATION ACCESS:          0  HIT:          0  MISS:          0
cpu0_ITLB PREFETCH  REQUESTED:          0  ISSUED:          0  USEFUL:          0  USELESS:          0
cpu0_ITLB AVERAGE MISS LATENCY: nan cycles
cpu0_STLB TOTAL     ACCESS:      47752  HIT:          0  MISS:      47752
cpu0_STLB LOAD      ACCESS:      11948  HIT:          0  MISS:      11948
cpu0_STLB RFO       ACCESS:      35804  HIT:          0  MISS:      35804
cpu0_STLB PREFETCH  ACCESS:          0  HIT:          0  MISS:          0
cpu0_STLB WRITEBACK ACCESS:          0  HIT:          0  MISS:          0
cpu0_STLB TRANSLATION ACCESS:          0  HIT:          0  MISS:          0
cpu0_STLB PREFETCH  REQUESTED:          0  ISSUED:          0  USEFUL:          0  USELESS:          0
cpu0_STLB AVERAGE MISS LATENCY: 216.639 cycles
cpu0_L1D TOTAL     ACCESS:   14655505  HIT:    9616975  MISS:    5038530
cpu0_L1D LOAD      ACCESS:    4303537  HIT:    3540067  MISS:     763470
cpu0_L1D RFO       ACCESS:   10304216  HIT:    6029203  MISS:    4275013
cpu0_L1D PREFETCH  ACCESS:          0  HIT:          0  MISS:          0
cpu0_L1D WRITEBACK ACCESS:          0  HIT:          0  MISS:          0
cpu0_L1D TRANSLATION ACCESS:      47752  HIT:      47705  MISS:         47
cpu0_L1D PREFETCH  REQUESTED:          0  ISSUED:          0  USEFUL:          0  USELESS:          0
cpu0_L1D AVERAGE MISS LATENCY: 378.39 cycles
cpu0_L2C TOTAL     ACCESS:    9313539  HIT:    6258808  MISS:    3054731
cpu0_L2C LOAD      ACCESS:     763470  HIT:          0  MISS:     763470
cpu0_L2C RFO       ACCESS:    4275010  HIT:    1983896  MISS:    2291114
cpu0_L2C PREFETCH  ACCESS:          0  HIT:          0  MISS:          0
cpu0_L2C WRITEBACK ACCESS:    4275012  HIT:    4274912  MISS:        100
cpu0_L2C TRANSLATION ACCESS:         47  HIT:          0  MISS:         47
cpu0_L2C PREFETCH  REQUESTED:          0  ISSUED:          0  USEFUL:          0  USELESS:          0
cpu0_L2C AVERAGE MISS LATENCY: 604.476 cycles
LLC TOTAL     ACCESS:    5345942  HIT:    1648084  MISS:    3697858
LLC LOAD      ACCESS:     763470  HIT:         58  MISS:     763412
LLC RFO       ACCESS:    2291114  HIT:     624935  MISS:    1666179
LLC PREFETCH  ACCESS:          0  HIT:          0  MISS:          0
LLC WRITEBACK ACCESS:    2291311  HIT:    1023068  MISS:    1268243
LLC TRANSLATION ACCESS:         47  HIT:         23  MISS:         24
LLC PREFETCH  REQUESTED:          0  ISSUED:          0  USEFUL:          0  USELESS:          0
LLC AVERAGE MISS LATENCY: 481.999 cycles
OPTgen accesses: 53102
OPTgen hits: 14075
OPTgen hit rate: 26.5056



DRAM Statistics
 CHANNEL 0
 RQ ROW_BUFFER_HIT:      37467  ROW_BUFFER_MISS:    2391920
 DBUS AVG_CONGESTED_CYCLE:    3.99471
 WQ ROW_BUFFER_HIT:      24011  ROW_BUFFER_MISS:    1921589  FULL:          0


CPU 0 Branch Prediction Accuracy: 99.132% MPKI: 0.10209 Average ROB Occupancy at Mispredict: 173.641
Branch type MPKI
BRANCH_DIRECT_JUMP: 0
BRANCH_INDIRECT: 0
BRANCH_CONDITIONAL: 0.10209
BRANCH_DIRECT_CALL: 0
BRANCH_INDIRECT_CALL: 0
BRANCH_RETURN: 0

