
*** ChampSim Multicore Out-of-Order Simulator ***

Warmup Instructions: 10000000
Simulation Instructions: 100000000
Number of CPUs: 1
Off-chip DRAM Size: 4 GiB Channels: 1 Width: 64-bit Data Rate: 3200 MT/s

VirtualMemory physical capacity: 8588881920 num_ppages: 2096895
VirtualMemory page size: 4096 log2_page_size: 12

CPU 0 runs /Users/raghavprasad/brandon/Homework2/traces/lbm_1004B.trace.xz
CPU 0 Bimodal branch predictor
Basic BTB sets: 1024 ways: 8 indirect buffer size: 4096 RAS size: 64
Initialize Hawkeye state
Heartbeat CPU 0 instructions: 10000003 cycles: 2504744 heartbeat IPC: 3.99243 cumulative IPC: 3.99243 (Simulation time: 0 hr 0 min 36 sec) 

Warmup complete CPU 0 instructions: 10000003 cycles: 2504744 (Simulation time: 0 hr 0 min 36 sec) 

Heartbeat CPU 0 instructions: 20000004 cycles: 32263307 heartbeat IPC: 0.336038 cumulative IPC: 0.336038 (Simulation time: 0 hr 3 min 36 sec) 
Heartbeat CPU 0 instructions: 30000004 cycles: 61445575 heartbeat IPC: 0.342674 cumulative IPC: 0.339323 (Simulation time: 0 hr 6 min 34 sec) 
Heartbeat CPU 0 instructions: 40000004 cycles: 91283619 heartbeat IPC: 0.335143 cumulative IPC: 0.337918 (Simulation time: 0 hr 9 min 38 sec) 
Heartbeat CPU 0 instructions: 50000004 cycles: 120752871 heartbeat IPC: 0.339337 cumulative IPC: 0.338272 (Simulation time: 0 hr 12 min 35 sec) 
Heartbeat CPU 0 instructions: 60000004 cycles: 150580143 heartbeat IPC: 0.335264 cumulative IPC: 0.337666 (Simulation time: 0 hr 15 min 33 sec) 
Heartbeat CPU 0 instructions: 70000001 cycles: 179817156 heartbeat IPC: 0.342032 cumulative IPC: 0.338386 (Simulation time: 0 hr 18 min 31 sec) 
Heartbeat CPU 0 instructions: 80000000 cycles: 233435117 heartbeat IPC: 0.186505 cumulative IPC: 0.303122 (Simulation time: 0 hr 25 min 10 sec) 
Heartbeat CPU 0 instructions: 90000003 cycles: 262906413 heartbeat IPC: 0.339313 cumulative IPC: 0.307218 (Simulation time: 0 hr 28 min 7 sec) 
Heartbeat CPU 0 instructions: 100000000 cycles: 292489859 heartbeat IPC: 0.338027 cumulative IPC: 0.310361 (Simulation time: 0 hr 31 min 6 sec) 
Heartbeat CPU 0 instructions: 110000003 cycles: 322905572 heartbeat IPC: 0.328778 cumulative IPC: 0.312109 (Simulation time: 0 hr 34 min 6 sec) 
Finished CPU 0 instructions: 100000000 cycles: 320400828 cumulative IPC: 0.312109 (Simulation time: 0 hr 34 min 6 sec) 

ChampSim completed all CPUs

Region of Interest Statistics

CPU 0 cumulative IPC: 0.312109 instructions: 100000000 cycles: 320400828
cpu0_DTLB TOTAL     ACCESS:   13656950  HIT:   13606500  MISS:      50450
cpu0_DTLB LOAD      ACCESS:    6951364  HIT:    6938745  MISS:      12619
cpu0_DTLB RFO       ACCESS:    6705586  HIT:    6667755  MISS:      37831
cpu0_DTLB PREFETCH  ACCESS:          0  HIT:          0  MISS:          0
cpu0_DTLB WRITEBACK ACCESS:          0  HIT:          0  MISS:          0
cpu0_DTLB TRANSLATION ACCESS:          0  HIT:          0  MISS:          0
cpu0_DTLB PREFETCH  REQUESTED:          0  ISSUED:          0  USEFUL:          0  USELESS:          0
cpu0_DTLB AVERAGE MISS LATENCY: 349.414 cycles
cpu0_ITLB TOTAL     ACCESS:     118396  HIT:     118395  MISS:          1
cpu0_ITLB LOAD      ACCESS:     118396  HIT:     118395  MISS:          1
cpu0_ITLB RFO       ACCESS:          0  HIT:          0  MISS:          0
cpu0_ITLB PREFETCH  ACCESS:          0  HIT:          0  MISS:          0
cpu0_ITLB WRITEBACK ACCESS:          0  HIT:          0  MISS:          0
cpu0_ITLB TRANSLATION ACCESS:          0  HIT:          0  MISS:          0
cpu0_ITLB PREFETCH  REQUESTED:          0  ISSUED:          0  USEFUL:          0  USELESS:          0
cpu0_ITLB AVERAGE MISS LATENCY: 412 cycles
cpu0_L1I TOTAL     ACCESS:         12  HIT:          6  MISS:          6
cpu0_L1I LOAD      ACCESS:         12  HIT:          6  MISS:          6
cpu0_L1I RFO       ACCESS:          0  HIT:          0  MISS:          0
cpu0_L1I PREFETCH  ACCESS:          0  HIT:          0  MISS:          0
cpu0_L1I WRITEBACK ACCESS:          0  HIT:          0  MISS:          0
cpu0_L1I TRANSLATION ACCESS:          0  HIT:          0  MISS:          0
cpu0_L1I PREFETCH  REQUESTED:          0  ISSUED:          0  USEFUL:          0  USELESS:          0
cpu0_L1I AVERAGE MISS LATENCY: 320.333 cycles
cpu0_STLB TOTAL     ACCESS:      50451  HIT:          5  MISS:      50446
cpu0_STLB LOAD      ACCESS:      12620  HIT:          0  MISS:      12620
cpu0_STLB RFO       ACCESS:      37831  HIT:          5  MISS:      37826
cpu0_STLB PREFETCH  ACCESS:          0  HIT:          0  MISS:          0
cpu0_STLB WRITEBACK ACCESS:          0  HIT:          0  MISS:          0
cpu0_STLB TRANSLATION ACCESS:          0  HIT:          0  MISS:          0
cpu0_STLB PREFETCH  REQUESTED:          0  ISSUED:          0  USEFUL:          0  USELESS:          0
cpu0_STLB AVERAGE MISS LATENCY: 340.449 cycles
cpu0_L1D TOTAL     ACCESS:   15131457  HIT:    9810931  MISS:    5320526
cpu0_L1D LOAD      ACCESS:    4359427  HIT:    3553064  MISS:     806363
cpu0_L1D RFO       ACCESS:   10721599  HIT:    6207485  MISS:    4514114
cpu0_L1D PREFETCH  ACCESS:          0  HIT:          0  MISS:          0
cpu0_L1D WRITEBACK ACCESS:          0  HIT:          0  MISS:          0
cpu0_L1D TRANSLATION ACCESS:      50431  HIT:      50382  MISS:         49
cpu0_L1D PREFETCH  REQUESTED:          0  ISSUED:          0  USEFUL:          0  USELESS:          0
cpu0_L1D AVERAGE MISS LATENCY: 416.054 cycles
cpu0_L2C TOTAL     ACCESS:    9834650  HIT:    6608124  MISS:    3226526
cpu0_L2C LOAD      ACCESS:     806369  HIT:        191  MISS:     806178
cpu0_L2C RFO       ACCESS:    4514114  HIT:    2093910  MISS:    2420204
cpu0_L2C PREFETCH  ACCESS:          0  HIT:          0  MISS:          0
cpu0_L2C WRITEBACK ACCESS:    4514118  HIT:    4514023  MISS:         95
cpu0_L2C TRANSLATION ACCESS:         49  HIT:          0  MISS:         49
cpu0_L2C PREFETCH  REQUESTED:          0  ISSUED:          0  USEFUL:          0  USELESS:          0
cpu0_L2C AVERAGE MISS LATENCY: 666.546 cycles
LLC TOTAL     ACCESS:    5646934  HIT:    1680423  MISS:    3966511
LLC LOAD      ACCESS:     806178  HIT:         79  MISS:     806099
LLC RFO       ACCESS:    2420204  HIT:     633725  MISS:    1786479
LLC PREFETCH  ACCESS:          0  HIT:          0  MISS:          0
LLC WRITEBACK ACCESS:    2420503  HIT:    1046596  MISS:    1373907
LLC TRANSLATION ACCESS:         49  HIT:         23  MISS:         26
LLC PREFETCH  REQUESTED:          0  ISSUED:          0  USEFUL:          0  USELESS:          0
LLC AVERAGE MISS LATENCY: 525.115 cycles
OPTgen accesses: 55019
OPTgen hits: 14365
OPTgen hit rate: 26.1092



DRAM Statistics
 CHANNEL 0
 RQ ROW_BUFFER_HIT:      42777  ROW_BUFFER_MISS:    2549645
 DBUS AVG_CONGESTED_CYCLE:     3.9952
 WQ ROW_BUFFER_HIT:      25581  ROW_BUFFER_MISS:    2038439  FULL:          0


CPU 0 Branch Prediction Accuracy: 99.2476% MPKI: 0.09355 Average ROB Occupancy at Mispredict: 169.858
Branch type MPKI
BRANCH_DIRECT_JUMP: 2e-05
BRANCH_INDIRECT: 0
BRANCH_CONDITIONAL: 0.09349
BRANCH_DIRECT_CALL: 2e-05
BRANCH_INDIRECT_CALL: 0
BRANCH_RETURN: 2e-05

