
*** ChampSim Multicore Out-of-Order Simulator ***

Warmup Instructions: 10000000
Simulation Instructions: 100000000
Number of CPUs: 1
Off-chip DRAM Size: 4 GiB Channels: 1 Width: 64-bit Data Rate: 3200 MT/s

VirtualMemory physical capacity: 8588881920 num_ppages: 2096895
VirtualMemory page size: 4096 log2_page_size: 12

CPU 0 runs /Users/raghavprasad/brandon/Homework2/traces/leslie3d_1116B.trace.xz
CPU 0 Bimodal branch predictor
Basic BTB sets: 1024 ways: 8 indirect buffer size: 4096 RAS size: 64
Initialize Hawkeye state
Heartbeat CPU 0 instructions: 10000000 cycles: 3692419 heartbeat IPC: 2.70825 cumulative IPC: 2.70825 (Simulation time: 0 hr 1 min 17 sec) 

Warmup complete CPU 0 instructions: 10000005 cycles: 3692420 (Simulation time: 0 hr 1 min 17 sec) 

Heartbeat CPU 0 instructions: 20000000 cycles: 12949047 heartbeat IPC: 1.08031 cumulative IPC: 1.08031 (Simulation time: 0 hr 3 min 30 sec) 
Heartbeat CPU 0 instructions: 30000004 cycles: 21688402 heartbeat IPC: 1.14425 cumulative IPC: 1.11136 (Simulation time: 0 hr 5 min 34 sec) 
Heartbeat CPU 0 instructions: 40000004 cycles: 32874134 heartbeat IPC: 0.893996 cumulative IPC: 1.02804 (Simulation time: 0 hr 7 min 56 sec) 
Heartbeat CPU 0 instructions: 50000000 cycles: 54810030 heartbeat IPC: 0.455874 cumulative IPC: 0.782509 (Simulation time: 0 hr 11 min 40 sec) 
Heartbeat CPU 0 instructions: 60000001 cycles: 109432220 heartbeat IPC: 0.183076 cumulative IPC: 0.472859 (Simulation time: 0 hr 19 min 36 sec) 
Heartbeat CPU 0 instructions: 70000000 cycles: 123935614 heartbeat IPC: 0.689494 cumulative IPC: 0.498989 (Simulation time: 0 hr 22 min 28 sec) 
Heartbeat CPU 0 instructions: 80000001 cycles: 137829387 heartbeat IPC: 0.719747 cumulative IPC: 0.521855 (Simulation time: 0 hr 25 min 15 sec) 
Heartbeat CPU 0 instructions: 90000004 cycles: 151226373 heartbeat IPC: 0.746437 cumulative IPC: 0.542248 (Simulation time: 0 hr 27 min 55 sec) 
Heartbeat CPU 0 instructions: 100000002 cycles: 164336249 heartbeat IPC: 0.762784 cumulative IPC: 0.560246 (Simulation time: 0 hr 30 min 35 sec) 
Heartbeat CPU 0 instructions: 110000000 cycles: 181738651 heartbeat IPC: 0.574633 cumulative IPC: 0.561652 (Simulation time: 0 hr 33 min 40 sec) 
Finished CPU 0 instructions: 100000000 cycles: 178046232 cumulative IPC: 0.561652 (Simulation time: 0 hr 33 min 40 sec) 

ChampSim completed all CPUs

Region of Interest Statistics

CPU 0 cumulative IPC: 0.561652 instructions: 100000000 cycles: 178046232
cpu0_DTLB TOTAL     ACCESS:   25747476  HIT:   25681762  MISS:      65714
cpu0_DTLB LOAD      ACCESS:   21123976  HIT:   21072318  MISS:      51658
cpu0_DTLB RFO       ACCESS:    4623500  HIT:    4609444  MISS:      14056
cpu0_DTLB PREFETCH  ACCESS:          0  HIT:          0  MISS:          0
cpu0_DTLB WRITEBACK ACCESS:          0  HIT:          0  MISS:          0
cpu0_DTLB TRANSLATION ACCESS:          0  HIT:          0  MISS:          0
cpu0_DTLB PREFETCH  REQUESTED:          0  ISSUED:          0  USEFUL:          0  USELESS:          0
cpu0_DTLB AVERAGE MISS LATENCY: 88.0363 cycles
cpu0_ITLB TOTAL     ACCESS:    2865072  HIT:    2865054  MISS:         18
cpu0_ITLB LOAD      ACCESS:    2865072  HIT:    2865054  MISS:         18
cpu0_ITLB RFO       ACCESS:          0  HIT:          0  MISS:          0
cpu0_ITLB PREFETCH  ACCESS:          0  HIT:          0  MISS:          0
cpu0_ITLB WRITEBACK ACCESS:          0  HIT:          0  MISS:          0
cpu0_ITLB TRANSLATION ACCESS:          0  HIT:          0  MISS:          0
cpu0_ITLB PREFETCH  REQUESTED:          0  ISSUED:          0  USEFUL:          0  USELESS:          0
cpu0_ITLB AVERAGE MISS LATENCY: 303.833 cycles
cpu0_L1I TOTAL     ACCESS:    1777900  HIT:    1777428  MISS:        472
cpu0_L1I LOAD      ACCESS:    1777900  HIT:    1777428  MISS:        472
cpu0_L1I RFO       ACCESS:          0  HIT:          0  MISS:          0
cpu0_L1I PREFETCH  ACCESS:          0  HIT:          0  MISS:          0
cpu0_L1I WRITEBACK ACCESS:          0  HIT:          0  MISS:          0
cpu0_L1I TRANSLATION ACCESS:          0  HIT:          0  MISS:          0
cpu0_L1I PREFETCH  REQUESTED:          0  ISSUED:          0  USEFUL:          0  USELESS:          0
cpu0_L1I AVERAGE MISS LATENCY: 369.612 cycles
cpu0_STLB TOTAL     ACCESS:      65732  HIT:      34108  MISS:      31624
cpu0_STLB LOAD      ACCESS:      51676  HIT:      28210  MISS:      23466
cpu0_STLB RFO       ACCESS:      14056  HIT:       5898  MISS:       8158
cpu0_STLB PREFETCH  ACCESS:          0  HIT:          0  MISS:          0
cpu0_STLB WRITEBACK ACCESS:          0  HIT:          0  MISS:          0
cpu0_STLB TRANSLATION ACCESS:          0  HIT:          0  MISS:          0
cpu0_STLB PREFETCH  REQUESTED:          0  ISSUED:          0  USEFUL:          0  USELESS:          0
cpu0_STLB AVERAGE MISS LATENCY: 164.39 cycles
cpu0_L1D TOTAL     ACCESS:   24544112  HIT:   21133948  MISS:    3410164
cpu0_L1D LOAD      ACCESS:   16392257  HIT:   13775142  MISS:    2617115
cpu0_L1D RFO       ACCESS:    8122527  HIT:    7333121  MISS:     789406
cpu0_L1D PREFETCH  ACCESS:          0  HIT:          0  MISS:          0
cpu0_L1D WRITEBACK ACCESS:          0  HIT:          0  MISS:          0
cpu0_L1D TRANSLATION ACCESS:      29328  HIT:      25685  MISS:       3643
cpu0_L1D PREFETCH  REQUESTED:          0  ISSUED:          0  USEFUL:          0  USELESS:          0
cpu0_L1D AVERAGE MISS LATENCY: 487.001 cycles
cpu0_L2C TOTAL     ACCESS:    4455103  HIT:    1718084  MISS:    2737019
cpu0_L2C LOAD      ACCESS:    2617538  HIT:     507312  MISS:    2110226
cpu0_L2C RFO       ACCESS:     789319  HIT:     162879  MISS:     626440
cpu0_L2C PREFETCH  ACCESS:          0  HIT:          0  MISS:          0
cpu0_L2C WRITEBACK ACCESS:    1044603  HIT:    1044348  MISS:        255
cpu0_L2C TRANSLATION ACCESS:       3643  HIT:       3545  MISS:         98
cpu0_L2C PREFETCH  REQUESTED:          0  ISSUED:          0  USEFUL:          0  USELESS:          0
cpu0_L2C AVERAGE MISS LATENCY: 593.102 cycles
LLC TOTAL     ACCESS:    3497761  HIT:     799561  MISS:    2698200
LLC LOAD      ACCESS:    2110226  HIT:     485405  MISS:    1624821
LLC RFO       ACCESS:     626440  HIT:     106788  MISS:     519652
LLC PREFETCH  ACCESS:          0  HIT:          0  MISS:          0
LLC WRITEBACK ACCESS:     760997  HIT:     207347  MISS:     553650
LLC TRANSLATION ACCESS:         98  HIT:         21  MISS:         77
LLC PREFETCH  REQUESTED:          0  ISSUED:          0  USEFUL:          0  USELESS:          0
LLC AVERAGE MISS LATENCY: 580.292 cycles
OPTgen accesses: 45397
OPTgen hits: 12462
OPTgen hit rate: 27.4512



DRAM Statistics
 CHANNEL 0
 RQ ROW_BUFFER_HIT:     213327  ROW_BUFFER_MISS:    1930567
 DBUS AVG_CONGESTED_CYCLE:    3.96001
 WQ ROW_BUFFER_HIT:      61803  ROW_BUFFER_MISS:     612179  FULL:      27623


CPU 0 Branch Prediction Accuracy: 96.8713% MPKI: 1.55302 Average ROB Occupancy at Mispredict: 297.766
Branch type MPKI
BRANCH_DIRECT_JUMP: 0.00018
BRANCH_INDIRECT: 0
BRANCH_CONDITIONAL: 1.55064
BRANCH_DIRECT_CALL: 0.00113
BRANCH_INDIRECT_CALL: 0
BRANCH_RETURN: 0.00107

