
*** ChampSim Multicore Out-of-Order Simulator ***

Warmup Instructions: 10000000
Simulation Instructions: 100000000
Number of CPUs: 1
Off-chip DRAM Size: 4 GiB Channels: 1 Width: 64-bit Data Rate: 3200 MT/s

VirtualMemory physical capacity: 8588881920 num_ppages: 2096895
VirtualMemory page size: 4096 log2_page_size: 12

CPU 0 runs /Users/raghavprasad/brandon/Homework2/traces/mcf_158B.trace.xz
CPU 0 Bimodal branch predictor
Basic BTB sets: 1024 ways: 8 indirect buffer size: 4096 RAS size: 64
Initialize Hawkeye state
Heartbeat CPU 0 instructions: 10000002 cycles: 3864094 heartbeat IPC: 2.58793 cumulative IPC: 2.58793 (Simulation time: 0 hr 1 min 15 sec) 

Warmup complete CPU 0 instructions: 10000002 cycles: 3864094 (Simulation time: 0 hr 1 min 15 sec) 

Heartbeat CPU 0 instructions: 20000000 cycles: 138436071 heartbeat IPC: 0.0743097 cumulative IPC: 0.0743097 (Simulation time: 0 hr 4 min 21 sec) 
Heartbeat CPU 0 instructions: 30000000 cycles: 269144696 heartbeat IPC: 0.076506 cumulative IPC: 0.0753919 (Simulation time: 0 hr 7 min 22 sec) 
Heartbeat CPU 0 instructions: 40000001 cycles: 394738833 heartbeat IPC: 0.0796216 cumulative IPC: 0.0767509 (Simulation time: 0 hr 10 min 16 sec) 
Heartbeat CPU 0 instructions: 50000000 cycles: 511571268 heartbeat IPC: 0.0855927 cumulative IPC: 0.0787856 (Simulation time: 0 hr 12 min 58 sec) 
Heartbeat CPU 0 instructions: 60000000 cycles: 624222921 heartbeat IPC: 0.0887692 cumulative IPC: 0.0805985 (Simulation time: 0 hr 15 min 37 sec) 
Heartbeat CPU 0 instructions: 70000002 cycles: 735204981 heartbeat IPC: 0.0901047 cumulative IPC: 0.0820411 (Simulation time: 0 hr 18 min 14 sec) 
Heartbeat CPU 0 instructions: 80000000 cycles: 848026664 heartbeat IPC: 0.0886354 cumulative IPC: 0.0829224 (Simulation time: 0 hr 20 min 54 sec) 
Heartbeat CPU 0 instructions: 90000003 cycles: 964315381 heartbeat IPC: 0.0859929 cumulative IPC: 0.0832942 (Simulation time: 0 hr 23 min 42 sec) 
Heartbeat CPU 0 instructions: 100000003 cycles: 1082370053 heartbeat IPC: 0.0847065 cumulative IPC: 0.0834488 (Simulation time: 0 hr 26 min 35 sec) 
Heartbeat CPU 0 instructions: 110000001 cycles: 1201688744 heartbeat IPC: 0.0838092 cumulative IPC: 0.0834847 (Simulation time: 0 hr 29 min 30 sec) 
Finished CPU 0 instructions: 100000002 cycles: 1197824651 cumulative IPC: 0.0834847 (Simulation time: 0 hr 29 min 30 sec) 

ChampSim completed all CPUs

Region of Interest Statistics

CPU 0 cumulative IPC: 0.0834847 instructions: 100000002 cycles: 1197824651
cpu0_DTLB TOTAL     ACCESS:   23553361  HIT:   12731522  MISS:   10821839
cpu0_DTLB LOAD      ACCESS:   20431981  HIT:    9977341  MISS:   10454640
cpu0_DTLB RFO       ACCESS:    3121380  HIT:    2754181  MISS:     367199
cpu0_DTLB PREFETCH  ACCESS:          0  HIT:          0  MISS:          0
cpu0_DTLB WRITEBACK ACCESS:          0  HIT:          0  MISS:          0
cpu0_DTLB TRANSLATION ACCESS:          0  HIT:          0  MISS:          0
cpu0_DTLB PREFETCH  REQUESTED:          0  ISSUED:          0  USEFUL:          0  USELESS:          0
cpu0_DTLB AVERAGE MISS LATENCY: 11.7666 cycles
cpu0_ITLB TOTAL     ACCESS:   12956099  HIT:   12956099  MISS:          0
cpu0_ITLB LOAD      ACCESS:   12956099  HIT:   12956099  MISS:          0
cpu0_ITLB RFO       ACCESS:          0  HIT:          0  MISS:          0
cpu0_ITLB PREFETCH  ACCESS:          0  HIT:          0  MISS:          0
cpu0_ITLB WRITEBACK ACCESS:          0  HIT:          0  MISS:          0
cpu0_ITLB TRANSLATION ACCESS:          0  HIT:          0  MISS:          0
cpu0_ITLB PREFETCH  REQUESTED:          0  ISSUED:          0  USEFUL:          0  USELESS:          0
cpu0_ITLB AVERAGE MISS LATENCY: nan cycles
cpu0_L1I TOTAL     ACCESS:         19  HIT:         14  MISS:          5
cpu0_L1I LOAD      ACCESS:         19  HIT:         14  MISS:          5
cpu0_L1I RFO       ACCESS:          0  HIT:          0  MISS:          0
cpu0_L1I PREFETCH  ACCESS:          0  HIT:          0  MISS:          0
cpu0_L1I WRITEBACK ACCESS:          0  HIT:          0  MISS:          0
cpu0_L1I TRANSLATION ACCESS:          0  HIT:          0  MISS:          0
cpu0_L1I PREFETCH  REQUESTED:          0  ISSUED:          0  USEFUL:          0  USELESS:          0
cpu0_L1I AVERAGE MISS LATENCY: 194.4 cycles
cpu0_STLB TOTAL     ACCESS:   10821839  HIT:    9710574  MISS:    1111265
cpu0_STLB LOAD      ACCESS:   10454640  HIT:    9350138  MISS:    1104502
cpu0_STLB RFO       ACCESS:     367199  HIT:     360436  MISS:       6763
cpu0_STLB PREFETCH  ACCESS:          0  HIT:          0  MISS:          0
cpu0_STLB WRITEBACK ACCESS:          0  HIT:          0  MISS:          0
cpu0_STLB TRANSLATION ACCESS:          0  HIT:          0  MISS:          0
cpu0_STLB PREFETCH  REQUESTED:          0  ISSUED:          0  USEFUL:          0  USELESS:          0
cpu0_STLB AVERAGE MISS LATENCY: 26.9032 cycles
cpu0_L1D TOTAL     ACCESS:   27616465  HIT:   14073383  MISS:   13543082
cpu0_L1D LOAD      ACCESS:   22269692  HIT:    9100396  MISS:   13169296
cpu0_L1D RFO       ACCESS:    4239339  HIT:    4034368  MISS:     204971
cpu0_L1D PREFETCH  ACCESS:          0  HIT:          0  MISS:          0
cpu0_L1D WRITEBACK ACCESS:          0  HIT:          0  MISS:          0
cpu0_L1D TRANSLATION ACCESS:    1107434  HIT:     938619  MISS:     168815
cpu0_L1D PREFETCH  REQUESTED:          0  ISSUED:          0  USEFUL:          0  USELESS:          0
cpu0_L1D AVERAGE MISS LATENCY: 158.721 cycles
cpu0_L2C TOTAL     ACCESS:   15652129  HIT:    6142187  MISS:    9509942
cpu0_L2C LOAD      ACCESS:   13168921  HIT:    3840732  MISS:    9328189
cpu0_L2C RFO       ACCESS:     204965  HIT:      71769  MISS:     133196
cpu0_L2C PREFETCH  ACCESS:          0  HIT:          0  MISS:          0
cpu0_L2C WRITEBACK ACCESS:    2109428  HIT:    2109168  MISS:        260
cpu0_L2C TRANSLATION ACCESS:     168815  HIT:     120518  MISS:      48297
cpu0_L2C PREFETCH  REQUESTED:          0  ISSUED:          0  USEFUL:          0  USELESS:          0
cpu0_L2C AVERAGE MISS LATENCY: 210.296 cycles
LLC TOTAL     ACCESS:   11015385  HIT:    4482991  MISS:    6532394
LLC LOAD      ACCESS:    9328189  HIT:    3574733  MISS:    5753456
LLC RFO       ACCESS:     133196  HIT:      70752  MISS:      62444
LLC PREFETCH  ACCESS:          0  HIT:          0  MISS:          0
LLC WRITEBACK ACCESS:    1505703  HIT:     825822  MISS:     679881
LLC TRANSLATION ACCESS:      48297  HIT:      11684  MISS:      36613
LLC PREFETCH  REQUESTED:          0  ISSUED:          0  USEFUL:          0  USELESS:          0
LLC AVERAGE MISS LATENCY: 275.58 cycles
OPTgen accesses: 169940
OPTgen hits: 63996
OPTgen hit rate: 37.658



DRAM Statistics
 CHANNEL 0
 RQ ROW_BUFFER_HIT:      17016  ROW_BUFFER_MISS:    5834946
 DBUS AVG_CONGESTED_CYCLE:    3.96174
 WQ ROW_BUFFER_HIT:      42283  ROW_BUFFER_MISS:     881139  FULL:          0


CPU 0 Branch Prediction Accuracy: 85.5988% MPKI: 40.2398 Average ROB Occupancy at Mispredict: 17.1866
Branch type MPKI
BRANCH_DIRECT_JUMP: 4e-05
BRANCH_INDIRECT: 0
BRANCH_CONDITIONAL: 40.2397
BRANCH_DIRECT_CALL: 0
BRANCH_INDIRECT_CALL: 0
BRANCH_RETURN: 0

