
*** ChampSim Multicore Out-of-Order Simulator ***

Warmup Instructions: 10000000
Simulation Instructions: 100000000
Number of CPUs: 1
Off-chip DRAM Size: 4 GiB Channels: 1 Width: 64-bit Data Rate: 3200 MT/s

VirtualMemory physical capacity: 8588881920 num_ppages: 2096895
VirtualMemory page size: 4096 log2_page_size: 12

CPU 0 runs /Users/raghavprasad/brandon/Homework2/traces/mcf_250B.trace.xz
CPU 0 Bimodal branch predictor
Basic BTB sets: 1024 ways: 8 indirect buffer size: 4096 RAS size: 64
Initialize Hawkeye state
Heartbeat CPU 0 instructions: 10000001 cycles: 3834277 heartbeat IPC: 2.60805 cumulative IPC: 2.60805 (Simulation time: 0 hr 1 min 13 sec) 

Warmup complete CPU 0 instructions: 10000001 cycles: 3834277 (Simulation time: 0 hr 1 min 13 sec) 

Heartbeat CPU 0 instructions: 20000000 cycles: 147290863 heartbeat IPC: 0.0697075 cumulative IPC: 0.0697075 (Simulation time: 0 hr 5 min 8 sec) 
Heartbeat CPU 0 instructions: 30000000 cycles: 285292936 heartbeat IPC: 0.0724627 cumulative IPC: 0.0710584 (Simulation time: 0 hr 8 min 51 sec) 
Heartbeat CPU 0 instructions: 40000000 cycles: 433834311 heartbeat IPC: 0.0673213 cumulative IPC: 0.0697674 (Simulation time: 0 hr 12 min 46 sec) 
Heartbeat CPU 0 instructions: 50000000 cycles: 575136238 heartbeat IPC: 0.0707704 cumulative IPC: 0.0700155 (Simulation time: 0 hr 16 min 41 sec) 
Heartbeat CPU 0 instructions: 60000000 cycles: 715868390 heartbeat IPC: 0.071057 cumulative IPC: 0.0702213 (Simulation time: 0 hr 20 min 41 sec) 
Heartbeat CPU 0 instructions: 70000000 cycles: 849454896 heartbeat IPC: 0.0748579 cumulative IPC: 0.0709538 (Simulation time: 0 hr 24 min 34 sec) 
Heartbeat CPU 0 instructions: 80000000 cycles: 992741704 heartbeat IPC: 0.0697901 cumulative IPC: 0.0707852 (Simulation time: 0 hr 28 min 41 sec) 
Heartbeat CPU 0 instructions: 90000000 cycles: 1115743434 heartbeat IPC: 0.0812997 cumulative IPC: 0.0719483 (Simulation time: 0 hr 32 min 21 sec) 
Heartbeat CPU 0 instructions: 100000000 cycles: 1254866378 heartbeat IPC: 0.0718789 cumulative IPC: 0.0719406 (Simulation time: 0 hr 36 min 18 sec) 
Heartbeat CPU 0 instructions: 110000000 cycles: 1398065351 heartbeat IPC: 0.0698329 cumulative IPC: 0.0717241 (Simulation time: 0 hr 40 min 19 sec) 
Finished CPU 0 instructions: 100000000 cycles: 1394231075 cumulative IPC: 0.0717241 (Simulation time: 0 hr 40 min 19 sec) 

ChampSim completed all CPUs

Region of Interest Statistics

CPU 0 cumulative IPC: 0.0717241 instructions: 100000000 cycles: 1394231075
cpu0_DTLB TOTAL     ACCESS:   20764585  HIT:    2974283  MISS:   17790302
cpu0_DTLB LOAD      ACCESS:   20269443  HIT:    2535018  MISS:   17734425
cpu0_DTLB RFO       ACCESS:     495142  HIT:     439265  MISS:      55877
cpu0_DTLB PREFETCH  ACCESS:          0  HIT:          0  MISS:          0
cpu0_DTLB WRITEBACK ACCESS:          0  HIT:          0  MISS:          0
cpu0_DTLB TRANSLATION ACCESS:          0  HIT:          0  MISS:          0
cpu0_DTLB PREFETCH  REQUESTED:          0  ISSUED:          0  USEFUL:          0  USELESS:          0
cpu0_DTLB AVERAGE MISS LATENCY: 11.864 cycles
cpu0_ITLB TOTAL     ACCESS:   11315260  HIT:   11315260  MISS:          0
cpu0_ITLB LOAD      ACCESS:   11315260  HIT:   11315260  MISS:          0
cpu0_ITLB RFO       ACCESS:          0  HIT:          0  MISS:          0
cpu0_ITLB PREFETCH  ACCESS:          0  HIT:          0  MISS:          0
cpu0_ITLB WRITEBACK ACCESS:          0  HIT:          0  MISS:          0
cpu0_ITLB TRANSLATION ACCESS:          0  HIT:          0  MISS:          0
cpu0_ITLB PREFETCH  REQUESTED:          0  ISSUED:          0  USEFUL:          0  USELESS:          0
cpu0_ITLB AVERAGE MISS LATENCY: nan cycles
cpu0_L1I TOTAL     ACCESS:          4  HIT:          4  MISS:          0
cpu0_L1I LOAD      ACCESS:          4  HIT:          4  MISS:          0
cpu0_L1I RFO       ACCESS:          0  HIT:          0  MISS:          0
cpu0_L1I PREFETCH  ACCESS:          0  HIT:          0  MISS:          0
cpu0_L1I WRITEBACK ACCESS:          0  HIT:          0  MISS:          0
cpu0_L1I TRANSLATION ACCESS:          0  HIT:          0  MISS:          0
cpu0_L1I PREFETCH  REQUESTED:          0  ISSUED:          0  USEFUL:          0  USELESS:          0
cpu0_L1I AVERAGE MISS LATENCY: nan cycles
cpu0_STLB TOTAL     ACCESS:   17790302  HIT:   17413171  MISS:     377131
cpu0_STLB LOAD      ACCESS:   17734425  HIT:   17359431  MISS:     374994
cpu0_STLB RFO       ACCESS:      55877  HIT:      53740  MISS:       2137
cpu0_STLB PREFETCH  ACCESS:          0  HIT:          0  MISS:          0
cpu0_STLB WRITEBACK ACCESS:          0  HIT:          0  MISS:          0
cpu0_STLB TRANSLATION ACCESS:          0  HIT:          0  MISS:          0
cpu0_STLB PREFETCH  REQUESTED:          0  ISSUED:          0  USEFUL:          0  USELESS:          0
cpu0_STLB AVERAGE MISS LATENCY: 135.072 cycles
cpu0_L1D TOTAL     ACCESS:   21381683  HIT:    3438156  MISS:   17943527
cpu0_L1D LOAD      ACCESS:   20340988  HIT:    2557197  MISS:   17783791
cpu0_L1D RFO       ACCESS:     664703  HIT:     633050  MISS:      31653
cpu0_L1D PREFETCH  ACCESS:          0  HIT:          0  MISS:          0
cpu0_L1D WRITEBACK ACCESS:          0  HIT:          0  MISS:          0
cpu0_L1D TRANSLATION ACCESS:     375992  HIT:     247909  MISS:     128083
cpu0_L1D PREFETCH  REQUESTED:          0  ISSUED:          0  USEFUL:          0  USELESS:          0
cpu0_L1D AVERAGE MISS LATENCY: 229.462 cycles
cpu0_L2C TOTAL     ACCESS:   18302532  HIT:    5810148  MISS:   12492384
cpu0_L2C LOAD      ACCESS:   17783764  HIT:    5401220  MISS:   12382544
cpu0_L2C RFO       ACCESS:      31652  HIT:       9253  MISS:      22399
cpu0_L2C PREFETCH  ACCESS:          0  HIT:          0  MISS:          0
cpu0_L2C WRITEBACK ACCESS:     359033  HIT:     359025  MISS:          8
cpu0_L2C TRANSLATION ACCESS:     128083  HIT:      40650  MISS:      87433
cpu0_L2C PREFETCH  REQUESTED:          0  ISSUED:          0  USEFUL:          0  USELESS:          0
cpu0_L2C AVERAGE MISS LATENCY: 313.777 cycles
LLC TOTAL     ACCESS:   12783348  HIT:    5792468  MISS:    6990880
LLC LOAD      ACCESS:   12382544  HIT:    5602658  MISS:    6779886
LLC RFO       ACCESS:      22399  HIT:      13014  MISS:       9385
LLC PREFETCH  ACCESS:          0  HIT:          0  MISS:          0
LLC WRITEBACK ACCESS:     290972  HIT:     162980  MISS:     127992
LLC TRANSLATION ACCESS:      87433  HIT:      13816  MISS:      73617
LLC PREFETCH  REQUESTED:          0  ISSUED:          0  USEFUL:          0  USELESS:          0
LLC AVERAGE MISS LATENCY: 523.18 cycles
OPTgen accesses: 218183
OPTgen hits: 94494
OPTgen hit rate: 43.3095



DRAM Statistics
 CHANNEL 0
 RQ ROW_BUFFER_HIT:      31743  ROW_BUFFER_MISS:    6830989
 DBUS AVG_CONGESTED_CYCLE:     3.9596
 WQ ROW_BUFFER_HIT:      10340  ROW_BUFFER_MISS:     192029  FULL:          0


CPU 0 Branch Prediction Accuracy: 91.6559% MPKI: 25.5287 Average ROB Occupancy at Mispredict: 24.51
Branch type MPKI
BRANCH_DIRECT_JUMP: 2e-05
BRANCH_INDIRECT: 0
BRANCH_CONDITIONAL: 25.5287
BRANCH_DIRECT_CALL: 0
BRANCH_INDIRECT_CALL: 0
BRANCH_RETURN: 0

