
*** ChampSim Multicore Out-of-Order Simulator ***

Warmup Instructions: 10000000
Simulation Instructions: 100000000
Number of CPUs: 1
Off-chip DRAM Size: 4 GiB Channels: 1 Width: 64-bit Data Rate: 3200 MT/s

VirtualMemory physical capacity: 8588881920 num_ppages: 2096895
VirtualMemory page size: 4096 log2_page_size: 12

CPU 0 runs /Users/raghavprasad/brandon/Homework2/traces/omnetpp_340B.trace.xz
CPU 0 Bimodal branch predictor
Basic BTB sets: 1024 ways: 8 indirect buffer size: 4096 RAS size: 64
Initialize Hawkeye state
Heartbeat CPU 0 instructions: 10000002 cycles: 2500207 heartbeat IPC: 3.99967 cumulative IPC: 3.99967 (Simulation time: 0 hr 0 min 44 sec) 

Warmup complete CPU 0 instructions: 10000002 cycles: 2500207 (Simulation time: 0 hr 0 min 44 sec) 

Heartbeat CPU 0 instructions: 20000000 cycles: 27367801 heartbeat IPC: 0.40213 cumulative IPC: 0.40213 (Simulation time: 0 hr 2 min 14 sec) 
Heartbeat CPU 0 instructions: 30000002 cycles: 52596130 heartbeat IPC: 0.39638 cumulative IPC: 0.399234 (Simulation time: 0 hr 3 min 41 sec) 
Heartbeat CPU 0 instructions: 40000000 cycles: 77289752 heartbeat IPC: 0.404963 cumulative IPC: 0.401126 (Simulation time: 0 hr 5 min 4 sec) 
Heartbeat CPU 0 instructions: 50000002 cycles: 102552131 heartbeat IPC: 0.395846 cumulative IPC: 0.399792 (Simulation time: 0 hr 6 min 22 sec) 
Heartbeat CPU 0 instructions: 60000001 cycles: 128606965 heartbeat IPC: 0.383806 cumulative IPC: 0.396489 (Simulation time: 0 hr 7 min 52 sec) 
Heartbeat CPU 0 instructions: 70000003 cycles: 154394432 heartbeat IPC: 0.387785 cumulative IPC: 0.395012 (Simulation time: 0 hr 9 min 14 sec) 
Heartbeat CPU 0 instructions: 80000003 cycles: 180925404 heartbeat IPC: 0.376918 cumulative IPC: 0.392321 (Simulation time: 0 hr 10 min 57 sec) 
Heartbeat CPU 0 instructions: 90000000 cycles: 206713537 heartbeat IPC: 0.387775 cumulative IPC: 0.391747 (Simulation time: 0 hr 12 min 31 sec) 
Heartbeat CPU 0 instructions: 100000000 cycles: 234439997 heartbeat IPC: 0.360666 cumulative IPC: 0.388032 (Simulation time: 0 hr 14 min 20 sec) 
Heartbeat CPU 0 instructions: 110000000 cycles: 259684514 heartbeat IPC: 0.396126 cumulative IPC: 0.388826 (Simulation time: 0 hr 15 min 57 sec) 
Finished CPU 0 instructions: 100000000 cycles: 257184309 cumulative IPC: 0.388826 (Simulation time: 0 hr 15 min 57 sec) 

ChampSim completed all CPUs

Region of Interest Statistics

CPU 0 cumulative IPC: 0.388826 instructions: 100000000 cycles: 257184309
cpu0_DTLB TOTAL     ACCESS:   23848552  HIT:   21951450  MISS:    1897102
cpu0_DTLB LOAD      ACCESS:   13884803  HIT:   12303675  MISS:    1581128
cpu0_DTLB RFO       ACCESS:    9963749  HIT:    9647775  MISS:     315974
cpu0_DTLB PREFETCH  ACCESS:          0  HIT:          0  MISS:          0
cpu0_DTLB WRITEBACK ACCESS:          0  HIT:          0  MISS:          0
cpu0_DTLB TRANSLATION ACCESS:          0  HIT:          0  MISS:          0
cpu0_DTLB PREFETCH  REQUESTED:          0  ISSUED:          0  USEFUL:          0  USELESS:          0
cpu0_DTLB AVERAGE MISS LATENCY: 13.1649 cycles
cpu0_ITLB TOTAL     ACCESS:   11128494  HIT:   11093127  MISS:      35367
cpu0_ITLB LOAD      ACCESS:   11128494  HIT:   11093127  MISS:      35367
cpu0_ITLB RFO       ACCESS:          0  HIT:          0  MISS:          0
cpu0_ITLB PREFETCH  ACCESS:          0  HIT:          0  MISS:          0
cpu0_ITLB WRITEBACK ACCESS:          0  HIT:          0  MISS:          0
cpu0_ITLB TRANSLATION ACCESS:          0  HIT:          0  MISS:          0
cpu0_ITLB PREFETCH  REQUESTED:          0  ISSUED:          0  USEFUL:          0  USELESS:          0
cpu0_ITLB AVERAGE MISS LATENCY: 9.26516 cycles
cpu0_L1I TOTAL     ACCESS:    8347865  HIT:    8341514  MISS:       6351
cpu0_L1I LOAD      ACCESS:    8347865  HIT:    8341514  MISS:       6351
cpu0_L1I RFO       ACCESS:          0  HIT:          0  MISS:          0
cpu0_L1I PREFETCH  ACCESS:          0  HIT:          0  MISS:          0
cpu0_L1I WRITEBACK ACCESS:          0  HIT:          0  MISS:          0
cpu0_L1I TRANSLATION ACCESS:          0  HIT:          0  MISS:          0
cpu0_L1I PREFETCH  REQUESTED:          0  ISSUED:          0  USEFUL:          0  USELESS:          0
cpu0_L1I AVERAGE MISS LATENCY: 55.6122 cycles
cpu0_STLB TOTAL     ACCESS:    1932469  HIT:    1457270  MISS:     475199
cpu0_STLB LOAD      ACCESS:    1616495  HIT:    1262601  MISS:     353894
cpu0_STLB RFO       ACCESS:     315974  HIT:     194669  MISS:     121305
cpu0_STLB PREFETCH  ACCESS:          0  HIT:          0  MISS:          0
cpu0_STLB WRITEBACK ACCESS:          0  HIT:          0  MISS:          0
cpu0_STLB TRANSLATION ACCESS:          0  HIT:          0  MISS:          0
cpu0_STLB PREFETCH  REQUESTED:          0  ISSUED:          0  USEFUL:          0  USELESS:          0
cpu0_STLB AVERAGE MISS LATENCY: 16.1761 cycles
cpu0_L1D TOTAL     ACCESS:   31512202  HIT:   29014304  MISS:    2497898
cpu0_L1D LOAD      ACCESS:   15717306  HIT:   13534439  MISS:    2182867
cpu0_L1D RFO       ACCESS:   15354485  HIT:   15043963  MISS:     310522
cpu0_L1D PREFETCH  ACCESS:          0  HIT:          0  MISS:          0
cpu0_L1D WRITEBACK ACCESS:          0  HIT:          0  MISS:          0
cpu0_L1D TRANSLATION ACCESS:     440411  HIT:     435902  MISS:       4509
cpu0_L1D PREFETCH  REQUESTED:          0  ISSUED:          0  USEFUL:          0  USELESS:          0
cpu0_L1D AVERAGE MISS LATENCY: 144.684 cycles
cpu0_L2C TOTAL     ACCESS:    3581353  HIT:    1431268  MISS:    2150085
cpu0_L2C LOAD      ACCESS:    2189181  HIT:     331186  MISS:    1857995
cpu0_L2C RFO       ACCESS:     310522  HIT:      21943  MISS:     288579
cpu0_L2C PREFETCH  ACCESS:          0  HIT:          0  MISS:          0
cpu0_L2C WRITEBACK ACCESS:    1077141  HIT:    1074830  MISS:       2311
cpu0_L2C TRANSLATION ACCESS:       4509  HIT:       3309  MISS:       1200
cpu0_L2C PREFETCH  REQUESTED:          0  ISSUED:          0  USEFUL:          0  USELESS:          0
cpu0_L2C AVERAGE MISS LATENCY: 155.283 cycles
LLC TOTAL     ACCESS:    3079461  HIT:    1049560  MISS:    2029901
LLC LOAD      ACCESS:    1857995  HIT:     421251  MISS:    1436744
LLC RFO       ACCESS:     288578  HIT:      77011  MISS:     211567
LLC PREFETCH  ACCESS:          0  HIT:          0  MISS:          0
LLC WRITEBACK ACCESS:     931688  HIT:     550537  MISS:     381151
LLC TRANSLATION ACCESS:       1200  HIT:        761  MISS:        439
LLC PREFETCH  REQUESTED:          0  ISSUED:          0  USEFUL:          0  USELESS:          0
LLC AVERAGE MISS LATENCY: 142.257 cycles
OPTgen accesses: 35874
OPTgen hits: 13337
OPTgen hit rate: 37.1773



DRAM Statistics
 CHANNEL 0
 RQ ROW_BUFFER_HIT:      88064  ROW_BUFFER_MISS:    1560555
 DBUS AVG_CONGESTED_CYCLE:    3.92478
 WQ ROW_BUFFER_HIT:     171122  ROW_BUFFER_MISS:     539553  FULL:          0


CPU 0 Branch Prediction Accuracy: 94.4212% MPKI: 13.4017 Average ROB Occupancy at Mispredict: 51.6011
Branch type MPKI
BRANCH_DIRECT_JUMP: 0.00017
BRANCH_INDIRECT: 0.04543
BRANCH_CONDITIONAL: 13.2857
BRANCH_DIRECT_CALL: 8e-05
BRANCH_INDIRECT_CALL: 0.04734
BRANCH_RETURN: 0.02301

