
*** ChampSim Multicore Out-of-Order Simulator ***

Warmup Instructions: 10000000
Simulation Instructions: 100000000
Number of CPUs: 1
Off-chip DRAM Size: 4 GiB Channels: 1 Width: 64-bit Data Rate: 3200 MT/s

VirtualMemory physical capacity: 8588881920 num_ppages: 2096895
VirtualMemory page size: 4096 log2_page_size: 12

CPU 0 runs /Users/raghavprasad/brandon/Homework2/traces/omnetpp_4B.trace.xz
CPU 0 Bimodal branch predictor
Basic BTB sets: 1024 ways: 8 indirect buffer size: 4096 RAS size: 64
Initialize Hawkeye state
Heartbeat CPU 0 instructions: 10000002 cycles: 2526495 heartbeat IPC: 3.95805 cumulative IPC: 3.95805 (Simulation time: 0 hr 0 min 34 sec) 

Warmup complete CPU 0 instructions: 10000002 cycles: 2526495 (Simulation time: 0 hr 0 min 34 sec) 

Heartbeat CPU 0 instructions: 20000000 cycles: 9550989 heartbeat IPC: 1.42359 cumulative IPC: 1.42359 (Simulation time: 0 hr 1 min 24 sec) 
Heartbeat CPU 0 instructions: 30000001 cycles: 17264022 heartbeat IPC: 1.29651 cumulative IPC: 1.35708 (Simulation time: 0 hr 2 min 25 sec) 
Heartbeat CPU 0 instructions: 40000002 cycles: 24983813 heartbeat IPC: 1.29537 cumulative IPC: 1.33587 (Simulation time: 0 hr 3 min 23 sec) 
Heartbeat CPU 0 instructions: 50000000 cycles: 32440805 heartbeat IPC: 1.34102 cumulative IPC: 1.33715 (Simulation time: 0 hr 4 min 20 sec) 
Heartbeat CPU 0 instructions: 60000000 cycles: 40244150 heartbeat IPC: 1.2815 cumulative IPC: 1.32564 (Simulation time: 0 hr 5 min 19 sec) 
Heartbeat CPU 0 instructions: 70000000 cycles: 47687752 heartbeat IPC: 1.34344 cumulative IPC: 1.32857 (Simulation time: 0 hr 6 min 11 sec) 
Heartbeat CPU 0 instructions: 80000000 cycles: 55439952 heartbeat IPC: 1.28996 cumulative IPC: 1.32291 (Simulation time: 0 hr 7 min 9 sec) 
Heartbeat CPU 0 instructions: 90000000 cycles: 63577112 heartbeat IPC: 1.22893 cumulative IPC: 1.31039 (Simulation time: 0 hr 8 min 19 sec) 
Heartbeat CPU 0 instructions: 100000001 cycles: 70784138 heartbeat IPC: 1.38753 cumulative IPC: 1.31853 (Simulation time: 0 hr 9 min 13 sec) 
Heartbeat CPU 0 instructions: 110000002 cycles: 78710502 heartbeat IPC: 1.26161 cumulative IPC: 1.31261 (Simulation time: 0 hr 10 min 27 sec) 
Finished CPU 0 instructions: 100000000 cycles: 76184007 cumulative IPC: 1.31261 (Simulation time: 0 hr 10 min 27 sec) 

ChampSim completed all CPUs

Region of Interest Statistics

CPU 0 cumulative IPC: 1.31261 instructions: 100000000 cycles: 76184007
cpu0_DTLB TOTAL     ACCESS:   11767532  HIT:   10335613  MISS:    1431919
cpu0_DTLB LOAD      ACCESS:    9181062  HIT:    7750702  MISS:    1430360
cpu0_DTLB RFO       ACCESS:    2586470  HIT:    2584911  MISS:       1559
cpu0_DTLB PREFETCH  ACCESS:          0  HIT:          0  MISS:          0
cpu0_DTLB WRITEBACK ACCESS:          0  HIT:          0  MISS:          0
cpu0_DTLB TRANSLATION ACCESS:          0  HIT:          0  MISS:          0
cpu0_DTLB PREFETCH  REQUESTED:          0  ISSUED:          0  USEFUL:          0  USELESS:          0
cpu0_DTLB AVERAGE MISS LATENCY: 17.6652 cycles
cpu0_ITLB TOTAL     ACCESS:    7987731  HIT:    7963564  MISS:      24167
cpu0_ITLB LOAD      ACCESS:    7987731  HIT:    7963564  MISS:      24167
cpu0_ITLB RFO       ACCESS:          0  HIT:          0  MISS:          0
cpu0_ITLB PREFETCH  ACCESS:          0  HIT:          0  MISS:          0
cpu0_ITLB WRITEBACK ACCESS:          0  HIT:          0  MISS:          0
cpu0_ITLB TRANSLATION ACCESS:          0  HIT:          0  MISS:          0
cpu0_ITLB PREFETCH  REQUESTED:          0  ISSUED:          0  USEFUL:          0  USELESS:          0
cpu0_ITLB AVERAGE MISS LATENCY: 10.8463 cycles
cpu0_L1I TOTAL     ACCESS:    1939711  HIT:    1876926  MISS:      62785
cpu0_L1I LOAD      ACCESS:    1939711  HIT:    1876926  MISS:      62785
cpu0_L1I RFO       ACCESS:          0  HIT:          0  MISS:          0
cpu0_L1I PREFETCH  ACCESS:          0  HIT:          0  MISS:          0
cpu0_L1I WRITEBACK ACCESS:          0  HIT:          0  MISS:          0
cpu0_L1I TRANSLATION ACCESS:          0  HIT:          0  MISS:          0
cpu0_L1I PREFETCH  REQUESTED:          0  ISSUED:          0  USEFUL:          0  USELESS:          0
cpu0_L1I AVERAGE MISS LATENCY: 49.8732 cycles
cpu0_STLB TOTAL     ACCESS:    1456086  HIT:      23537  MISS:    1432549
cpu0_STLB LOAD      ACCESS:    1454527  HIT:      22797  MISS:    1431730
cpu0_STLB RFO       ACCESS:       1559  HIT:        740  MISS:        819
cpu0_STLB PREFETCH  ACCESS:          0  HIT:          0  MISS:          0
cpu0_STLB WRITEBACK ACCESS:          0  HIT:          0  MISS:          0
cpu0_STLB TRANSLATION ACCESS:          0  HIT:          0  MISS:          0
cpu0_STLB PREFETCH  REQUESTED:          0  ISSUED:          0  USEFUL:          0  USELESS:          0
cpu0_STLB AVERAGE MISS LATENCY: 8.26883 cycles
cpu0_L1D TOTAL     ACCESS:   12770046  HIT:   10280133  MISS:    2489913
cpu0_L1D LOAD      ACCESS:    7425494  HIT:    4974326  MISS:    2451168
cpu0_L1D RFO       ACCESS:    4651453  HIT:    4613707  MISS:      37746
cpu0_L1D PREFETCH  ACCESS:          0  HIT:          0  MISS:          0
cpu0_L1D WRITEBACK ACCESS:          0  HIT:          0  MISS:          0
cpu0_L1D TRANSLATION ACCESS:     693099  HIT:     692100  MISS:        999
cpu0_L1D PREFETCH  REQUESTED:          0  ISSUED:          0  USEFUL:          0  USELESS:          0
cpu0_L1D AVERAGE MISS LATENCY: 92.5957 cycles
cpu0_L2C TOTAL     ACCESS:    2633616  HIT:     115089  MISS:    2518527
cpu0_L2C LOAD      ACCESS:    2513951  HIT:      32991  MISS:    2480960
cpu0_L2C RFO       ACCESS:      37746  HIT:        963  MISS:      36783
cpu0_L2C PREFETCH  ACCESS:          0  HIT:          0  MISS:          0
cpu0_L2C WRITEBACK ACCESS:      80920  HIT:      80920  MISS:          0
cpu0_L2C TRANSLATION ACCESS:        999  HIT:        215  MISS:        784
cpu0_L2C PREFETCH  REQUESTED:          0  ISSUED:          0  USEFUL:          0  USELESS:          0
cpu0_L2C AVERAGE MISS LATENCY: 81.0977 cycles
LLC TOTAL     ACCESS:    2597896  HIT:    2087942  MISS:     509954
LLC LOAD      ACCESS:    2480959  HIT:    1995918  MISS:     485041
LLC RFO       ACCESS:      36783  HIT:      17029  MISS:      19754
LLC PREFETCH  ACCESS:          0  HIT:          0  MISS:          0
LLC WRITEBACK ACCESS:      79370  HIT:      74288  MISS:       5082
LLC TRANSLATION ACCESS:        784  HIT:        707  MISS:         77
LLC PREFETCH  REQUESTED:          0  ISSUED:          0  USEFUL:          0  USELESS:          0
LLC AVERAGE MISS LATENCY: 296.742 cycles
OPTgen accesses: 44274
OPTgen hits: 39289
OPTgen hit rate: 88.7406



DRAM Statistics
 CHANNEL 0
 RQ ROW_BUFFER_HIT:      25474  ROW_BUFFER_MISS:     475807
 DBUS AVG_CONGESTED_CYCLE:    3.94827
 WQ ROW_BUFFER_HIT:       6379  ROW_BUFFER_MISS:      46061  FULL:          0


CPU 0 Branch Prediction Accuracy: 97.4293% MPKI: 8.26178 Average ROB Occupancy at Mispredict: 56.9962
Branch type MPKI
BRANCH_DIRECT_JUMP: 0.00037
BRANCH_INDIRECT: 0.12485
BRANCH_CONDITIONAL: 8.10493
BRANCH_DIRECT_CALL: 0.00326
BRANCH_INDIRECT_CALL: 0.00558
BRANCH_RETURN: 0.02279

