
*** ChampSim Multicore Out-of-Order Simulator ***

Warmup Instructions: 10000000
Simulation Instructions: 100000000
Number of CPUs: 1
Off-chip DRAM Size: 4 GiB Channels: 1 Width: 64-bit Data Rate: 3200 MT/s

VirtualMemory physical capacity: 8588881920 num_ppages: 2096895
VirtualMemory page size: 4096 log2_page_size: 12

CPU 0 runs /Users/raghavprasad/brandon/Homework2/traces/soplex_66B.trace.xz
CPU 0 Bimodal branch predictor
Basic BTB sets: 1024 ways: 8 indirect buffer size: 4096 RAS size: 64
Initialize Hawkeye state
Heartbeat CPU 0 instructions: 10000004 cycles: 2688390 heartbeat IPC: 3.7197 cumulative IPC: 3.7197 (Simulation time: 0 hr 0 min 42 sec) 

Warmup complete CPU 0 instructions: 10000004 cycles: 2688390 (Simulation time: 0 hr 0 min 42 sec) 

Heartbeat CPU 0 instructions: 20000003 cycles: 27370614 heartbeat IPC: 0.40515 cumulative IPC: 0.40515 (Simulation time: 0 hr 2 min 21 sec) 
Heartbeat CPU 0 instructions: 30000001 cycles: 53176053 heartbeat IPC: 0.387515 cumulative IPC: 0.396136 (Simulation time: 0 hr 4 min 5 sec) 
Heartbeat CPU 0 instructions: 40000002 cycles: 78356913 heartbeat IPC: 0.397127 cumulative IPC: 0.396466 (Simulation time: 0 hr 5 min 40 sec) 
Heartbeat CPU 0 instructions: 50000002 cycles: 112864320 heartbeat IPC: 0.289793 cumulative IPC: 0.363056 (Simulation time: 0 hr 8 min 18 sec) 
Heartbeat CPU 0 instructions: 60000002 cycles: 146487717 heartbeat IPC: 0.297412 cumulative IPC: 0.347707 (Simulation time: 0 hr 10 min 30 sec) 
Heartbeat CPU 0 instructions: 70000001 cycles: 173525739 heartbeat IPC: 0.36985 cumulative IPC: 0.351211 (Simulation time: 0 hr 12 min 22 sec) 
Heartbeat CPU 0 instructions: 80000001 cycles: 201364851 heartbeat IPC: 0.359207 cumulative IPC: 0.352332 (Simulation time: 0 hr 14 min 39 sec) 
Heartbeat CPU 0 instructions: 90000003 cycles: 226540790 heartbeat IPC: 0.397205 cumulative IPC: 0.357378 (Simulation time: 0 hr 16 min 27 sec) 
Heartbeat CPU 0 instructions: 100000000 cycles: 252499251 heartbeat IPC: 0.385231 cumulative IPC: 0.360273 (Simulation time: 0 hr 18 min 12 sec) 
Heartbeat CPU 0 instructions: 110000003 cycles: 278034109 heartbeat IPC: 0.391622 cumulative IPC: 0.36318 (Simulation time: 0 hr 19 min 59 sec) 
Finished CPU 0 instructions: 100000004 cycles: 275345720 cumulative IPC: 0.36318 (Simulation time: 0 hr 19 min 59 sec) 

ChampSim completed all CPUs

Region of Interest Statistics

CPU 0 cumulative IPC: 0.36318 instructions: 100000004 cycles: 275345720
cpu0_DTLB TOTAL     ACCESS:   19882502  HIT:   19305007  MISS:     577495
cpu0_DTLB LOAD      ACCESS:   14817412  HIT:   14359890  MISS:     457522
cpu0_DTLB RFO       ACCESS:    5065090  HIT:    4945117  MISS:     119973
cpu0_DTLB PREFETCH  ACCESS:          0  HIT:          0  MISS:          0
cpu0_DTLB WRITEBACK ACCESS:          0  HIT:          0  MISS:          0
cpu0_DTLB TRANSLATION ACCESS:          0  HIT:          0  MISS:          0
cpu0_DTLB PREFETCH  REQUESTED:          0  ISSUED:          0  USEFUL:          0  USELESS:          0
cpu0_DTLB AVERAGE MISS LATENCY: 16.4683 cycles
cpu0_ITLB TOTAL     ACCESS:    8263108  HIT:    8263090  MISS:         18
cpu0_ITLB LOAD      ACCESS:    8263108  HIT:    8263090  MISS:         18
cpu0_ITLB RFO       ACCESS:          0  HIT:          0  MISS:          0
cpu0_ITLB PREFETCH  ACCESS:          0  HIT:          0  MISS:          0
cpu0_ITLB WRITEBACK ACCESS:          0  HIT:          0  MISS:          0
cpu0_ITLB TRANSLATION ACCESS:          0  HIT:          0  MISS:          0
cpu0_ITLB PREFETCH  REQUESTED:          0  ISSUED:          0  USEFUL:          0  USELESS:          0
cpu0_ITLB AVERAGE MISS LATENCY: 296.333 cycles
cpu0_L1I TOTAL     ACCESS:    1903170  HIT:    1902309  MISS:        861
cpu0_L1I LOAD      ACCESS:    1903170  HIT:    1902309  MISS:        861
cpu0_L1I RFO       ACCESS:          0  HIT:          0  MISS:          0
cpu0_L1I PREFETCH  ACCESS:          0  HIT:          0  MISS:          0
cpu0_L1I WRITEBACK ACCESS:          0  HIT:          0  MISS:          0
cpu0_L1I TRANSLATION ACCESS:          0  HIT:          0  MISS:          0
cpu0_L1I PREFETCH  REQUESTED:          0  ISSUED:          0  USEFUL:          0  USELESS:          0
cpu0_L1I AVERAGE MISS LATENCY: 274.24 cycles
cpu0_STLB TOTAL     ACCESS:     577513  HIT:     474591  MISS:     102922
cpu0_STLB LOAD      ACCESS:     457540  HIT:     362456  MISS:      95084
cpu0_STLB RFO       ACCESS:     119973  HIT:     112135  MISS:       7838
cpu0_STLB PREFETCH  ACCESS:          0  HIT:          0  MISS:          0
cpu0_STLB WRITEBACK ACCESS:          0  HIT:          0  MISS:          0
cpu0_STLB TRANSLATION ACCESS:          0  HIT:          0  MISS:          0
cpu0_STLB PREFETCH  REQUESTED:          0  ISSUED:          0  USEFUL:          0  USELESS:          0
cpu0_STLB AVERAGE MISS LATENCY: 41.3679 cycles
cpu0_L1D TOTAL     ACCESS:   17127535  HIT:   12810513  MISS:    4317022
cpu0_L1D LOAD      ACCESS:   11116214  HIT:    7517940  MISS:    3598274
cpu0_L1D RFO       ACCESS:    5911295  HIT:    5195180  MISS:     716115
cpu0_L1D PREFETCH  ACCESS:          0  HIT:          0  MISS:          0
cpu0_L1D WRITEBACK ACCESS:          0  HIT:          0  MISS:          0
cpu0_L1D TRANSLATION ACCESS:     100026  HIT:      97393  MISS:       2633
cpu0_L1D PREFETCH  REQUESTED:          0  ISSUED:          0  USEFUL:          0  USELESS:          0
cpu0_L1D AVERAGE MISS LATENCY: 219.893 cycles
cpu0_L2C TOTAL     ACCESS:    6105367  HIT:    2614433  MISS:    3490934
cpu0_L2C LOAD      ACCESS:    3599006  HIT:     721680  MISS:    2877326
cpu0_L2C RFO       ACCESS:     716046  HIT:     103682  MISS:     612364
cpu0_L2C PREFETCH  ACCESS:          0  HIT:          0  MISS:          0
cpu0_L2C WRITEBACK ACCESS:    1787682  HIT:    1787127  MISS:        555
cpu0_L2C TRANSLATION ACCESS:       2633  HIT:       1944  MISS:        689
cpu0_L2C PREFETCH  REQUESTED:          0  ISSUED:          0  USEFUL:          0  USELESS:          0
cpu0_L2C AVERAGE MISS LATENCY: 258.201 cycles
LLC TOTAL     ACCESS:    4868042  HIT:    2379947  MISS:    2488095
LLC LOAD      ACCESS:    2877287  HIT:    1174986  MISS:    1702301
LLC RFO       ACCESS:     612357  HIT:     234050  MISS:     378307
LLC PREFETCH  ACCESS:          0  HIT:          0  MISS:          0
LLC WRITEBACK ACCESS:    1377709  HIT:     970474  MISS:     407235
LLC TRANSLATION ACCESS:        689  HIT:        437  MISS:        252
LLC PREFETCH  REQUESTED:          0  ISSUED:          0  USEFUL:          0  USELESS:          0
LLC AVERAGE MISS LATENCY: 331.802 cycles
OPTgen accesses: 59865
OPTgen hits: 28271
OPTgen hit rate: 47.2246



DRAM Statistics
 CHANNEL 0
 RQ ROW_BUFFER_HIT:     304896  ROW_BUFFER_MISS:    1774192
 DBUS AVG_CONGESTED_CYCLE:    3.95664
 WQ ROW_BUFFER_HIT:      62194  ROW_BUFFER_MISS:     775634  FULL:     710840


CPU 0 Branch Prediction Accuracy: 91.9788% MPKI: 17.5693 Average ROB Occupancy at Mispredict: 27.6458
Branch type MPKI
BRANCH_DIRECT_JUMP: 0.00093
BRANCH_INDIRECT: 0.00028
BRANCH_CONDITIONAL: 17.5659
BRANCH_DIRECT_CALL: 0.00064
BRANCH_INDIRECT_CALL: 0.00043
BRANCH_RETURN: 0.00108

