
*** ChampSim Multicore Out-of-Order Simulator ***

Warmup Instructions: 10000000
Simulation Instructions: 100000000
Number of CPUs: 1
Off-chip DRAM Size: 4 GiB Channels: 1 Width: 64-bit Data Rate: 3200 MT/s

VirtualMemory physical capacity: 8588881920 num_ppages: 2096895
VirtualMemory page size: 4096 log2_page_size: 12

CPU 0 runs /Users/raghavprasad/brandon/Homework2/traces/sphinx3_883B.trace.xz
CPU 0 Bimodal branch predictor
Basic BTB sets: 1024 ways: 8 indirect buffer size: 4096 RAS size: 64
Initialize Hawkeye state
Heartbeat CPU 0 instructions: 10000003 cycles: 2628875 heartbeat IPC: 3.80391 cumulative IPC: 3.80391 (Simulation time: 0 hr 0 min 45 sec) 

Warmup complete CPU 0 instructions: 10000003 cycles: 2628875 (Simulation time: 0 hr 0 min 45 sec) 

Heartbeat CPU 0 instructions: 20000000 cycles: 15529559 heartbeat IPC: 0.775152 cumulative IPC: 0.775152 (Simulation time: 0 hr 2 min 13 sec) 
Heartbeat CPU 0 instructions: 30000001 cycles: 28330456 heartbeat IPC: 0.781195 cumulative IPC: 0.778162 (Simulation time: 0 hr 3 min 40 sec) 
Heartbeat CPU 0 instructions: 40000004 cycles: 40435724 heartbeat IPC: 0.826087 cumulative IPC: 0.793507 (Simulation time: 0 hr 5 min 9 sec) 
Heartbeat CPU 0 instructions: 50000003 cycles: 52357688 heartbeat IPC: 0.838788 cumulative IPC: 0.804363 (Simulation time: 0 hr 6 min 34 sec) 
Heartbeat CPU 0 instructions: 60000000 cycles: 63653836 heartbeat IPC: 0.885257 cumulative IPC: 0.819337 (Simulation time: 0 hr 8 min 2 sec) 
Heartbeat CPU 0 instructions: 70000002 cycles: 73145403 heartbeat IPC: 1.05357 cumulative IPC: 0.850864 (Simulation time: 0 hr 9 min 16 sec) 
Heartbeat CPU 0 instructions: 80000000 cycles: 83527739 heartbeat IPC: 0.963174 cumulative IPC: 0.865278 (Simulation time: 0 hr 10 min 37 sec) 
Heartbeat CPU 0 instructions: 90000002 cycles: 92789800 heartbeat IPC: 1.07967 cumulative IPC: 0.887302 (Simulation time: 0 hr 11 min 58 sec) 
Heartbeat CPU 0 instructions: 100000003 cycles: 101219862 heartbeat IPC: 1.18623 cumulative IPC: 0.912862 (Simulation time: 0 hr 13 min 9 sec) 
Heartbeat CPU 0 instructions: 110000003 cycles: 111700013 heartbeat IPC: 0.954185 cumulative IPC: 0.916833 (Simulation time: 0 hr 14 min 30 sec) 
Finished CPU 0 instructions: 100000000 cycles: 109071138 cumulative IPC: 0.916833 (Simulation time: 0 hr 14 min 30 sec) 

ChampSim completed all CPUs

Region of Interest Statistics

CPU 0 cumulative IPC: 0.916833 instructions: 100000000 cycles: 109071138
cpu0_DTLB TOTAL     ACCESS:   16808809  HIT:   16648882  MISS:     159927
cpu0_DTLB LOAD      ACCESS:   15452846  HIT:   15301168  MISS:     151678
cpu0_DTLB RFO       ACCESS:    1355963  HIT:    1347714  MISS:       8249
cpu0_DTLB PREFETCH  ACCESS:          0  HIT:          0  MISS:          0
cpu0_DTLB WRITEBACK ACCESS:          0  HIT:          0  MISS:          0
cpu0_DTLB TRANSLATION ACCESS:          0  HIT:          0  MISS:          0
cpu0_DTLB PREFETCH  REQUESTED:          0  ISSUED:          0  USEFUL:          0  USELESS:          0
cpu0_DTLB AVERAGE MISS LATENCY: 12.8048 cycles
cpu0_ITLB TOTAL     ACCESS:    9400586  HIT:    9400521  MISS:         65
cpu0_ITLB LOAD      ACCESS:    9400586  HIT:    9400521  MISS:         65
cpu0_ITLB RFO       ACCESS:          0  HIT:          0  MISS:          0
cpu0_ITLB PREFETCH  ACCESS:          0  HIT:          0  MISS:          0
cpu0_ITLB WRITEBACK ACCESS:          0  HIT:          0  MISS:          0
cpu0_ITLB TRANSLATION ACCESS:          0  HIT:          0  MISS:          0
cpu0_ITLB PREFETCH  REQUESTED:          0  ISSUED:          0  USEFUL:          0  USELESS:          0
cpu0_ITLB AVERAGE MISS LATENCY: 147.415 cycles
cpu0_L1I TOTAL     ACCESS:     192845  HIT:     191465  MISS:       1380
cpu0_L1I LOAD      ACCESS:     192845  HIT:     191465  MISS:       1380
cpu0_L1I RFO       ACCESS:          0  HIT:          0  MISS:          0
cpu0_L1I PREFETCH  ACCESS:          0  HIT:          0  MISS:          0
cpu0_L1I WRITEBACK ACCESS:          0  HIT:          0  MISS:          0
cpu0_L1I TRANSLATION ACCESS:          0  HIT:          0  MISS:          0
cpu0_L1I PREFETCH  REQUESTED:          0  ISSUED:          0  USEFUL:          0  USELESS:          0
cpu0_L1I AVERAGE MISS LATENCY: 182.442 cycles
cpu0_STLB TOTAL     ACCESS:     159992  HIT:      99093  MISS:      60899
cpu0_STLB LOAD      ACCESS:     151743  HIT:      92079  MISS:      59664
cpu0_STLB RFO       ACCESS:       8249  HIT:       7014  MISS:       1235
cpu0_STLB PREFETCH  ACCESS:          0  HIT:          0  MISS:          0
cpu0_STLB WRITEBACK ACCESS:          0  HIT:          0  MISS:          0
cpu0_STLB TRANSLATION ACCESS:          0  HIT:          0  MISS:          0
cpu0_STLB PREFETCH  REQUESTED:          0  ISSUED:          0  USEFUL:          0  USELESS:          0
cpu0_STLB AVERAGE MISS LATENCY: 10.0134 cycles
cpu0_L1D TOTAL     ACCESS:   12444114  HIT:   10694819  MISS:    1749295
cpu0_L1D LOAD      ACCESS:   10176479  HIT:    8542115  MISS:    1634364
cpu0_L1D RFO       ACCESS:    2209464  HIT:    2095328  MISS:     114136
cpu0_L1D PREFETCH  ACCESS:          0  HIT:          0  MISS:          0
cpu0_L1D WRITEBACK ACCESS:          0  HIT:          0  MISS:          0
cpu0_L1D TRANSLATION ACCESS:      58171  HIT:      57376  MISS:        795
cpu0_L1D PREFETCH  REQUESTED:          0  ISSUED:          0  USEFUL:          0  USELESS:          0
cpu0_L1D AVERAGE MISS LATENCY: 128.034 cycles
cpu0_L2C TOTAL     ACCESS:    1908263  HIT:     511148  MISS:    1397115
cpu0_L2C LOAD      ACCESS:    1635741  HIT:     341946  MISS:    1293795
cpu0_L2C RFO       ACCESS:     114131  HIT:      11246  MISS:     102885
cpu0_L2C PREFETCH  ACCESS:          0  HIT:          0  MISS:          0
cpu0_L2C WRITEBACK ACCESS:     157596  HIT:     157351  MISS:        245
cpu0_L2C TRANSLATION ACCESS:        795  HIT:        605  MISS:        190
cpu0_L2C PREFETCH  REQUESTED:          0  ISSUED:          0  USEFUL:          0  USELESS:          0
cpu0_L2C AVERAGE MISS LATENCY: 146.647 cycles
LLC TOTAL     ACCESS:    1531192  HIT:     663977  MISS:     867215
LLC LOAD      ACCESS:    1293793  HIT:     498037  MISS:     795756
LLC RFO       ACCESS:     102885  HIT:      65534  MISS:      37351
LLC PREFETCH  ACCESS:          0  HIT:          0  MISS:          0
LLC WRITEBACK ACCESS:     134324  HIT:     100258  MISS:      34066
LLC TRANSLATION ACCESS:        190  HIT:        148  MISS:         42
LLC PREFETCH  REQUESTED:          0  ISSUED:          0  USEFUL:          0  USELESS:          0
LLC AVERAGE MISS LATENCY: 202.426 cycles
OPTgen accesses: 24039
OPTgen hits: 11906
OPTgen hit rate: 49.5279



DRAM Statistics
 CHANNEL 0
 RQ ROW_BUFFER_HIT:      79772  ROW_BUFFER_MISS:     753271
 DBUS AVG_CONGESTED_CYCLE:    3.85453
 WQ ROW_BUFFER_HIT:      10466  ROW_BUFFER_MISS:      41663  FULL:        192


CPU 0 Branch Prediction Accuracy: 91.645% MPKI: 7.87682 Average ROB Occupancy at Mispredict: 160.809
Branch type MPKI
BRANCH_DIRECT_JUMP: 0.0017
BRANCH_INDIRECT: 0.00111
BRANCH_CONDITIONAL: 7.87013
BRANCH_DIRECT_CALL: 0.00166
BRANCH_INDIRECT_CALL: 0.0005
BRANCH_RETURN: 0.00172

