
*** ChampSim Multicore Out-of-Order Simulator ***

Warmup Instructions: 10000000
Simulation Instructions: 100000000
Number of CPUs: 1
Off-chip DRAM Size: 4 GiB Channels: 1 Width: 64-bit Data Rate: 3200 MT/s

VirtualMemory physical capacity: 8588881920 num_ppages: 2096895
VirtualMemory page size: 4096 log2_page_size: 12

CPU 0 runs /Users/raghavprasad/brandon/Homework2/traces/wrf_1650B.trace.xz
CPU 0 Bimodal branch predictor
Basic BTB sets: 1024 ways: 8 indirect buffer size: 4096 RAS size: 64
Initialize Hawkeye state
Heartbeat CPU 0 instructions: 10000001 cycles: 2500100 heartbeat IPC: 3.99984 cumulative IPC: 3.99984 (Simulation time: 0 hr 0 min 39 sec) 

Warmup complete CPU 0 instructions: 10000001 cycles: 2500100 (Simulation time: 0 hr 0 min 39 sec) 

Heartbeat CPU 0 instructions: 20000004 cycles: 12137552 heartbeat IPC: 1.03762 cumulative IPC: 1.03762 (Simulation time: 0 hr 2 min 7 sec) 
Heartbeat CPU 0 instructions: 30000000 cycles: 21774145 heartbeat IPC: 1.03771 cumulative IPC: 1.03766 (Simulation time: 0 hr 3 min 34 sec) 
Heartbeat CPU 0 instructions: 40000002 cycles: 31416518 heartbeat IPC: 1.03709 cumulative IPC: 1.03747 (Simulation time: 0 hr 5 min 1 sec) 
Heartbeat CPU 0 instructions: 50000001 cycles: 47703099 heartbeat IPC: 0.614002 cumulative IPC: 0.884897 (Simulation time: 0 hr 7 min 29 sec) 
Heartbeat CPU 0 instructions: 60000000 cycles: 60871250 heartbeat IPC: 0.759408 cumulative IPC: 0.856588 (Simulation time: 0 hr 10 min 23 sec) 
Heartbeat CPU 0 instructions: 70000002 cycles: 76774543 heartbeat IPC: 0.628801 cumulative IPC: 0.807815 (Simulation time: 0 hr 13 min 1 sec) 
Heartbeat CPU 0 instructions: 80000004 cycles: 92580656 heartbeat IPC: 0.632667 cumulative IPC: 0.777082 (Simulation time: 0 hr 15 min 26 sec) 
Heartbeat CPU 0 instructions: 90000002 cycles: 108219071 heartbeat IPC: 0.639451 cumulative IPC: 0.756723 (Simulation time: 0 hr 17 min 49 sec) 
Heartbeat CPU 0 instructions: 100000004 cycles: 128472998 heartbeat IPC: 0.493731 cumulative IPC: 0.714439 (Simulation time: 0 hr 19 min 53 sec) 
Heartbeat CPU 0 instructions: 110000004 cycles: 147132592 heartbeat IPC: 0.535917 cumulative IPC: 0.691408 (Simulation time: 0 hr 21 min 2 sec) 
Finished CPU 0 instructions: 100000003 cycles: 144632492 cumulative IPC: 0.691408 (Simulation time: 0 hr 21 min 2 sec) 

ChampSim completed all CPUs

Region of Interest Statistics

CPU 0 cumulative IPC: 0.691408 instructions: 100000003 cycles: 144632492
cpu0_DTLB TOTAL     ACCESS:   16122899  HIT:   16092137  MISS:      30762
cpu0_DTLB LOAD      ACCESS:   14706314  HIT:   14682296  MISS:      24018
cpu0_DTLB RFO       ACCESS:    1416585  HIT:    1409841  MISS:       6744
cpu0_DTLB PREFETCH  ACCESS:          0  HIT:          0  MISS:          0
cpu0_DTLB WRITEBACK ACCESS:          0  HIT:          0  MISS:          0
cpu0_DTLB TRANSLATION ACCESS:          0  HIT:          0  MISS:          0
cpu0_DTLB PREFETCH  REQUESTED:          0  ISSUED:          0  USEFUL:          0  USELESS:          0
cpu0_DTLB AVERAGE MISS LATENCY: 145.008 cycles
cpu0_ITLB TOTAL     ACCESS:    6816156  HIT:    6816129  MISS:         27
cpu0_ITLB LOAD      ACCESS:    6816156  HIT:    6816129  MISS:         27
cpu0_ITLB RFO       ACCESS:          0  HIT:          0  MISS:          0
cpu0_ITLB PREFETCH  ACCESS:          0  HIT:          0  MISS:          0
cpu0_ITLB WRITEBACK ACCESS:          0  HIT:          0  MISS:          0
cpu0_ITLB TRANSLATION ACCESS:          0  HIT:          0  MISS:          0
cpu0_ITLB PREFETCH  REQUESTED:          0  ISSUED:          0  USEFUL:          0  USELESS:          0
cpu0_ITLB AVERAGE MISS LATENCY: 242.296 cycles
cpu0_L1I TOTAL     ACCESS:    1672713  HIT:    1672169  MISS:        544
cpu0_L1I LOAD      ACCESS:    1672713  HIT:    1672169  MISS:        544
cpu0_L1I RFO       ACCESS:          0  HIT:          0  MISS:          0
cpu0_L1I PREFETCH  ACCESS:          0  HIT:          0  MISS:          0
cpu0_L1I WRITEBACK ACCESS:          0  HIT:          0  MISS:          0
cpu0_L1I TRANSLATION ACCESS:          0  HIT:          0  MISS:          0
cpu0_L1I PREFETCH  REQUESTED:          0  ISSUED:          0  USEFUL:          0  USELESS:          0
cpu0_L1I AVERAGE MISS LATENCY: 379.029 cycles
cpu0_STLB TOTAL     ACCESS:      30789  HIT:      16559  MISS:      14230
cpu0_STLB LOAD      ACCESS:      24045  HIT:      13005  MISS:      11040
cpu0_STLB RFO       ACCESS:       6744  HIT:       3554  MISS:       3190
cpu0_STLB PREFETCH  ACCESS:          0  HIT:          0  MISS:          0
cpu0_STLB WRITEBACK ACCESS:          0  HIT:          0  MISS:          0
cpu0_STLB TRANSLATION ACCESS:          0  HIT:          0  MISS:          0
cpu0_STLB PREFETCH  REQUESTED:          0  ISSUED:          0  USEFUL:          0  USELESS:          0
cpu0_STLB AVERAGE MISS LATENCY: 294.461 cycles
cpu0_L1D TOTAL     ACCESS:   14600800  HIT:   13568655  MISS:    1032145
cpu0_L1D LOAD      ACCESS:   12312950  HIT:   11495476  MISS:     817474
cpu0_L1D RFO       ACCESS:    2275010  HIT:    2060912  MISS:     214098
cpu0_L1D PREFETCH  ACCESS:          0  HIT:          0  MISS:          0
cpu0_L1D WRITEBACK ACCESS:          0  HIT:          0  MISS:          0
cpu0_L1D TRANSLATION ACCESS:      12840  HIT:      12267  MISS:        573
cpu0_L1D PREFETCH  REQUESTED:          0  ISSUED:          0  USEFUL:          0  USELESS:          0
cpu0_L1D AVERAGE MISS LATENCY: 238.89 cycles
cpu0_L2C TOTAL     ACCESS:    1278843  HIT:     489848  MISS:     788995
cpu0_L2C LOAD      ACCESS:     818005  HIT:     229424  MISS:     588581
cpu0_L2C RFO       ACCESS:     214094  HIT:      13793  MISS:     200301
cpu0_L2C PREFETCH  ACCESS:          0  HIT:          0  MISS:          0
cpu0_L2C WRITEBACK ACCESS:     246171  HIT:     246099  MISS:         72
cpu0_L2C TRANSLATION ACCESS:        573  HIT:        532  MISS:         41
cpu0_L2C PREFETCH  REQUESTED:          0  ISSUED:          0  USEFUL:          0  USELESS:          0
cpu0_L2C AVERAGE MISS LATENCY: 298.366 cycles
LLC TOTAL     ACCESS:    1004549  HIT:     112656  MISS:     891893
LLC LOAD      ACCESS:     588581  HIT:      25575  MISS:     563006
LLC RFO       ACCESS:     200301  HIT:         55  MISS:     200246
LLC PREFETCH  ACCESS:          0  HIT:          0  MISS:          0
LLC WRITEBACK ACCESS:     215626  HIT:      87006  MISS:     128620
LLC TRANSLATION ACCESS:         41  HIT:         20  MISS:         21
LLC PREFETCH  REQUESTED:          0  ISSUED:          0  USEFUL:          0  USELESS:          0
LLC AVERAGE MISS LATENCY: 245.368 cycles
OPTgen accesses: 12518
OPTgen hits: 605
OPTgen hit rate: 4.83304



DRAM Statistics
 CHANNEL 0
 RQ ROW_BUFFER_HIT:      26053  ROW_BUFFER_MISS:     737193
 DBUS AVG_CONGESTED_CYCLE:    3.93255
 WQ ROW_BUFFER_HIT:      35428  ROW_BUFFER_MISS:     176593  FULL:          0


CPU 0 Branch Prediction Accuracy: 83.2596% MPKI: 18.9931 Average ROB Occupancy at Mispredict: 253.271
Branch type MPKI
BRANCH_DIRECT_JUMP: 0.0005
BRANCH_INDIRECT: 0
BRANCH_CONDITIONAL: 18.9921
BRANCH_DIRECT_CALL: 0.00023
BRANCH_INDIRECT_CALL: 0
BRANCH_RETURN: 0.00022

