
*** ChampSim Multicore Out-of-Order Simulator ***

Warmup Instructions: 10000000
Simulation Instructions: 100000000
Number of CPUs: 1
Off-chip DRAM Size: 4 GiB Channels: 1 Width: 64-bit Data Rate: 3200 MT/s

VirtualMemory physical capacity: 8588881920 num_ppages: 2096895
VirtualMemory page size: 4096 log2_page_size: 12

CPU 0 runs /Users/raghavprasad/brandon/Homework2/traces/zeusmp_100B.trace.xz
CPU 0 Bimodal branch predictor
Basic BTB sets: 1024 ways: 8 indirect buffer size: 4096 RAS size: 64
Initialize Hawkeye state
Heartbeat CPU 0 instructions: 10000000 cycles: 2533557 heartbeat IPC: 3.94702 cumulative IPC: 3.94702 (Simulation time: 0 hr 0 min 40 sec) 

Warmup complete CPU 0 instructions: 10000004 cycles: 2533558 (Simulation time: 0 hr 0 min 40 sec) 

Heartbeat CPU 0 instructions: 20000003 cycles: 8014689 heartbeat IPC: 1.82444 cumulative IPC: 1.82444 (Simulation time: 0 hr 1 min 57 sec) 
Heartbeat CPU 0 instructions: 30000000 cycles: 13936793 heartbeat IPC: 1.68859 cumulative IPC: 1.75389 (Simulation time: 0 hr 3 min 20 sec) 
Heartbeat CPU 0 instructions: 40000004 cycles: 19851096 heartbeat IPC: 1.69082 cumulative IPC: 1.73235 (Simulation time: 0 hr 4 min 43 sec) 
Heartbeat CPU 0 instructions: 50000001 cycles: 25739646 heartbeat IPC: 1.69821 cumulative IPC: 1.72369 (Simulation time: 0 hr 6 min 6 sec) 
Heartbeat CPU 0 instructions: 60000004 cycles: 31658636 heartbeat IPC: 1.68948 cumulative IPC: 1.71673 (Simulation time: 0 hr 7 min 26 sec) 
Heartbeat CPU 0 instructions: 70000001 cycles: 37539838 heartbeat IPC: 1.70033 cumulative IPC: 1.71398 (Simulation time: 0 hr 8 min 43 sec) 
Heartbeat CPU 0 instructions: 80000001 cycles: 43457481 heartbeat IPC: 1.68986 cumulative IPC: 1.71049 (Simulation time: 0 hr 10 min 1 sec) 
Heartbeat CPU 0 instructions: 90000000 cycles: 49373148 heartbeat IPC: 1.69043 cumulative IPC: 1.70796 (Simulation time: 0 hr 11 min 17 sec) 
Heartbeat CPU 0 instructions: 100000000 cycles: 55260995 heartbeat IPC: 1.69841 cumulative IPC: 1.70689 (Simulation time: 0 hr 12 min 23 sec) 
Heartbeat CPU 0 instructions: 110000003 cycles: 61180490 heartbeat IPC: 1.68933 cumulative IPC: 1.70512 (Simulation time: 0 hr 13 min 20 sec) 
Finished CPU 0 instructions: 100000004 cycles: 58646933 cumulative IPC: 1.70512 (Simulation time: 0 hr 13 min 20 sec) 

ChampSim completed all CPUs

Region of Interest Statistics

CPU 0 cumulative IPC: 1.70512 instructions: 100000004 cycles: 58646933
cpu0_DTLB TOTAL     ACCESS:   16444796  HIT:   12280343  MISS:    4164453
cpu0_DTLB LOAD      ACCESS:   11966307  HIT:    9308981  MISS:    2657326
cpu0_DTLB RFO       ACCESS:    4478489  HIT:    2971362  MISS:    1507127
cpu0_DTLB PREFETCH  ACCESS:          0  HIT:          0  MISS:          0
cpu0_DTLB WRITEBACK ACCESS:          0  HIT:          0  MISS:          0
cpu0_DTLB TRANSLATION ACCESS:          0  HIT:          0  MISS:          0
cpu0_DTLB PREFETCH  REQUESTED:          0  ISSUED:          0  USEFUL:          0  USELESS:          0
cpu0_DTLB AVERAGE MISS LATENCY: 10.4056 cycles
cpu0_ITLB TOTAL     ACCESS:    2227415  HIT:    2227414  MISS:          1
cpu0_ITLB LOAD      ACCESS:    2227415  HIT:    2227414  MISS:          1
cpu0_ITLB RFO       ACCESS:          0  HIT:          0  MISS:          0
cpu0_ITLB PREFETCH  ACCESS:          0  HIT:          0  MISS:          0
cpu0_ITLB WRITEBACK ACCESS:          0  HIT:          0  MISS:          0
cpu0_ITLB TRANSLATION ACCESS:          0  HIT:          0  MISS:          0
cpu0_ITLB PREFETCH  REQUESTED:          0  ISSUED:          0  USEFUL:          0  USELESS:          0
cpu0_ITLB AVERAGE MISS LATENCY: 249 cycles
cpu0_L1I TOTAL     ACCESS:    3117545  HIT:    3117494  MISS:         51
cpu0_L1I LOAD      ACCESS:    3117545  HIT:    3117494  MISS:         51
cpu0_L1I RFO       ACCESS:          0  HIT:          0  MISS:          0
cpu0_L1I PREFETCH  ACCESS:          0  HIT:          0  MISS:          0
cpu0_L1I WRITEBACK ACCESS:          0  HIT:          0  MISS:          0
cpu0_L1I TRANSLATION ACCESS:          0  HIT:          0  MISS:          0
cpu0_L1I PREFETCH  REQUESTED:          0  ISSUED:          0  USEFUL:          0  USELESS:          0
cpu0_L1I AVERAGE MISS LATENCY: 347.941 cycles
cpu0_STLB TOTAL     ACCESS:    4164454  HIT:    4156015  MISS:       8439
cpu0_STLB LOAD      ACCESS:    2657327  HIT:    2652164  MISS:       5163
cpu0_STLB RFO       ACCESS:    1507127  HIT:    1503851  MISS:       3276
cpu0_STLB PREFETCH  ACCESS:          0  HIT:          0  MISS:          0
cpu0_STLB WRITEBACK ACCESS:          0  HIT:          0  MISS:          0
cpu0_STLB TRANSLATION ACCESS:          0  HIT:          0  MISS:          0
cpu0_STLB PREFETCH  REQUESTED:          0  ISSUED:          0  USEFUL:          0  USELESS:          0
cpu0_STLB AVERAGE MISS LATENCY: 556.708 cycles
cpu0_L1D TOTAL     ACCESS:   19020887  HIT:   13986209  MISS:    5034678
cpu0_L1D LOAD      ACCESS:   12125647  HIT:    8890808  MISS:    3234839
cpu0_L1D RFO       ACCESS:    6886908  HIT:    5094766  MISS:    1792142
cpu0_L1D PREFETCH  ACCESS:          0  HIT:          0  MISS:          0
cpu0_L1D WRITEBACK ACCESS:          0  HIT:          0  MISS:          0
cpu0_L1D TRANSLATION ACCESS:       8332  HIT:        635  MISS:       7697
cpu0_L1D PREFETCH  REQUESTED:          0  ISSUED:          0  USEFUL:          0  USELESS:          0
cpu0_L1D AVERAGE MISS LATENCY: 86.3979 cycles
cpu0_L2C TOTAL     ACCESS:    6855390  HIT:    6266649  MISS:     588741
cpu0_L2C LOAD      ACCESS:    3234616  HIT:    2839428  MISS:     395188
cpu0_L2C RFO       ACCESS:    1790650  HIT:    1597388  MISS:     193262
cpu0_L2C PREFETCH  ACCESS:          0  HIT:          0  MISS:          0
cpu0_L2C WRITEBACK ACCESS:    1822427  HIT:    1822146  MISS:        281
cpu0_L2C TRANSLATION ACCESS:       7697  HIT:       7687  MISS:         10
cpu0_L2C PREFETCH  REQUESTED:          0  ISSUED:          0  USEFUL:          0  USELESS:          0
cpu0_L2C AVERAGE MISS LATENCY: 643.916 cycles
LLC TOTAL     ACCESS:     781814  HIT:     102887  MISS:     678927
LLC LOAD      ACCESS:     395188  HIT:      89472  MISS:     305716
LLC RFO       ACCESS:     193262  HIT:          0  MISS:     193262
LLC PREFETCH  ACCESS:          0  HIT:          0  MISS:          0
LLC WRITEBACK ACCESS:     193354  HIT:      13408  MISS:     179946
LLC TRANSLATION ACCESS:         10  HIT:          7  MISS:          3
LLC PREFETCH  REQUESTED:          0  ISSUED:          0  USEFUL:          0  USELESS:          0
LLC AVERAGE MISS LATENCY: 540.179 cycles
OPTgen accesses: 9827
OPTgen hits: 1520
OPTgen hit rate: 15.4676



DRAM Statistics
 CHANNEL 0
 RQ ROW_BUFFER_HIT:        102  ROW_BUFFER_MISS:     498879
 DBUS AVG_CONGESTED_CYCLE:    3.99927
 WQ ROW_BUFFER_HIT:        319  ROW_BUFFER_MISS:     195701  FULL:          0


CPU 0 Branch Prediction Accuracy: 99.0158% MPKI: 0.52371 Average ROB Occupancy at Mispredict: 235.806
Branch type MPKI
BRANCH_DIRECT_JUMP: 1e-05
BRANCH_INDIRECT: 0
BRANCH_CONDITIONAL: 0.5237
BRANCH_DIRECT_CALL: 0
BRANCH_INDIRECT_CALL: 0
BRANCH_RETURN: 0

