
*** ChampSim Multicore Out-of-Order Simulator ***

Warmup Instructions: 10000000
Simulation Instructions: 100000000
Number of CPUs: 1
Off-chip DRAM Size: 4 GiB Channels: 1 Width: 64-bit Data Rate: 3200 MT/s

VirtualMemory physical capacity: 8588881920 num_ppages: 2096895
VirtualMemory page size: 4096 log2_page_size: 12

CPU 0 runs /datasets/cs240c-wi22-a00-public/data/Assignment2/GemsFDTD_109B.trace.xz
CPU 0 Bimodal branch predictor
Basic BTB sets: 1024 ways: 8 indirect buffer size: 4096 RAS size: 64
Initialize Hawkeye state
Heartbeat CPU 0 instructions: 10000004 cycles: 4294006 heartbeat IPC: 2.32883 cumulative IPC: 2.32883 (Simulation time: 0 hr 1 min 7 sec) 

Warmup complete CPU 0 instructions: 10000004 cycles: 4294006 (Simulation time: 0 hr 1 min 7 sec) 

Heartbeat CPU 0 instructions: 20000000 cycles: 35031605 heartbeat IPC: 0.325334 cumulative IPC: 0.325334 (Simulation time: 0 hr 5 min 2 sec) 
Heartbeat CPU 0 instructions: 30000004 cycles: 56522132 heartbeat IPC: 0.465321 cumulative IPC: 0.382935 (Simulation time: 0 hr 7 min 21 sec) 
Heartbeat CPU 0 instructions: 40000004 cycles: 62885569 heartbeat IPC: 1.57148 cumulative IPC: 0.512019 (Simulation time: 0 hr 8 min 21 sec) 
Heartbeat CPU 0 instructions: 50000002 cycles: 83759633 heartbeat IPC: 0.479063 cumulative IPC: 0.503362 (Simulation time: 0 hr 10 min 44 sec) 
Heartbeat CPU 0 instructions: 60000002 cycles: 123989151 heartbeat IPC: 0.248574 cumulative IPC: 0.417728 (Simulation time: 0 hr 15 min 22 sec) 
Heartbeat CPU 0 instructions: 70000001 cycles: 163821378 heartbeat IPC: 0.251053 cumulative IPC: 0.376111 (Simulation time: 0 hr 19 min 57 sec) 
Heartbeat CPU 0 instructions: 80000003 cycles: 203516058 heartbeat IPC: 0.251923 cumulative IPC: 0.351367 (Simulation time: 0 hr 24 min 23 sec) 
Heartbeat CPU 0 instructions: 90000000 cycles: 243196022 heartbeat IPC: 0.252016 cumulative IPC: 0.334865 (Simulation time: 0 hr 28 min 59 sec) 
Heartbeat CPU 0 instructions: 100000003 cycles: 282923103 heartbeat IPC: 0.251718 cumulative IPC: 0.32301 (Simulation time: 0 hr 33 min 34 sec) 
Heartbeat CPU 0 instructions: 110000004 cycles: 322619234 heartbeat IPC: 0.251914 cumulative IPC: 0.314144 (Simulation time: 0 hr 38 min 6 sec) 
Finished CPU 0 instructions: 100000000 cycles: 318325228 cumulative IPC: 0.314144 (Simulation time: 0 hr 38 min 6 sec) 

ChampSim completed all CPUs

Region of Interest Statistics

CPU 0 cumulative IPC: 0.314144 instructions: 100000000 cycles: 318325228
cpu0_DTLB TOTAL     ACCESS:   26448416  HIT:   26248995  MISS:     199421
cpu0_DTLB LOAD      ACCESS:   21017141  HIT:   20819720  MISS:     197421
cpu0_DTLB RFO       ACCESS:    5431275  HIT:    5429275  MISS:       2000
cpu0_DTLB PREFETCH  ACCESS:          0  HIT:          0  MISS:          0
cpu0_DTLB WRITEBACK ACCESS:          0  HIT:          0  MISS:          0
cpu0_DTLB TRANSLATION ACCESS:          0  HIT:          0  MISS:          0
cpu0_DTLB PREFETCH  REQUESTED:          0  ISSUED:          0  USEFUL:          0  USELESS:          0
cpu0_DTLB AVERAGE MISS LATENCY: 421.842 cycles
cpu0_ITLB TOTAL     ACCESS:    2037685  HIT:    2037667  MISS:         18
cpu0_ITLB LOAD      ACCESS:    2037685  HIT:    2037667  MISS:         18
cpu0_ITLB RFO       ACCESS:          0  HIT:          0  MISS:          0
cpu0_ITLB PREFETCH  ACCESS:          0  HIT:          0  MISS:          0
cpu0_ITLB WRITEBACK ACCESS:          0  HIT:          0  MISS:          0
cpu0_ITLB TRANSLATION ACCESS:          0  HIT:          0  MISS:          0
cpu0_ITLB PREFETCH  REQUESTED:          0  ISSUED:          0  USEFUL:          0  USELESS:          0
cpu0_ITLB AVERAGE MISS LATENCY: 249.222 cycles
cpu0_L1I TOTAL     ACCESS:    1722958  HIT:    1722528  MISS:        430
cpu0_L1I LOAD      ACCESS:    1722958  HIT:    1722528  MISS:        430
cpu0_L1I RFO       ACCESS:          0  HIT:          0  MISS:          0
cpu0_L1I PREFETCH  ACCESS:          0  HIT:          0  MISS:          0
cpu0_L1I WRITEBACK ACCESS:          0  HIT:          0  MISS:          0
cpu0_L1I TRANSLATION ACCESS:          0  HIT:          0  MISS:          0
cpu0_L1I PREFETCH  REQUESTED:          0  ISSUED:          0  USEFUL:          0  USELESS:          0
cpu0_L1I AVERAGE MISS LATENCY: 390.66 cycles
cpu0_STLB TOTAL     ACCESS:     199439  HIT:      33978  MISS:     165461
cpu0_STLB LOAD      ACCESS:     197439  HIT:      32672  MISS:     164767
cpu0_STLB RFO       ACCESS:       2000  HIT:       1306  MISS:        694
cpu0_STLB PREFETCH  ACCESS:          0  HIT:          0  MISS:          0
cpu0_STLB WRITEBACK ACCESS:          0  HIT:          0  MISS:          0
cpu0_STLB TRANSLATION ACCESS:          0  HIT:          0  MISS:          0
cpu0_STLB PREFETCH  REQUESTED:          0  ISSUED:          0  USEFUL:          0  USELESS:          0
cpu0_STLB AVERAGE MISS LATENCY: 497.483 cycles
cpu0_L1D TOTAL     ACCESS:   22888741  HIT:   19658409  MISS:    3230332
cpu0_L1D LOAD      ACCESS:   13789537  HIT:   10689499  MISS:    3100038
cpu0_L1D RFO       ACCESS:    9008995  HIT:    8881383  MISS:     127612
cpu0_L1D PREFETCH  ACCESS:          0  HIT:          0  MISS:          0
cpu0_L1D WRITEBACK ACCESS:          0  HIT:          0  MISS:          0
cpu0_L1D TRANSLATION ACCESS:      90209  HIT:      87527  MISS:       2682
cpu0_L1D PREFETCH  REQUESTED:          0  ISSUED:          0  USEFUL:          0  USELESS:          0
cpu0_L1D AVERAGE MISS LATENCY: 718.877 cycles
cpu0_L2C TOTAL     ACCESS:    4595596  HIT:    1423608  MISS:    3171988
cpu0_L2C LOAD      ACCESS:    3100468  HIT:      41349  MISS:    3059119
cpu0_L2C RFO       ACCESS:     127612  HIT:      15038  MISS:     112574
cpu0_L2C PREFETCH  ACCESS:          0  HIT:          0  MISS:          0
cpu0_L2C WRITEBACK ACCESS:    1364834  HIT:    1364736  MISS:         98
cpu0_L2C TRANSLATION ACCESS:       2682  HIT:       2485  MISS:        197
cpu0_L2C PREFETCH  REQUESTED:          0  ISSUED:          0  USEFUL:          0  USELESS:          0
cpu0_L2C AVERAGE MISS LATENCY: 720.934 cycles
LLC TOTAL     ACCESS:    4523283  HIT:    1095574  MISS:    3427709
LLC LOAD      ACCESS:    3059115  HIT:     709691  MISS:    2349424
LLC RFO       ACCESS:     112574  HIT:      90011  MISS:      22563
LLC PREFETCH  ACCESS:          0  HIT:          0  MISS:          0
LLC WRITEBACK ACCESS:    1351397  HIT:     295774  MISS:    1055623
LLC TRANSLATION ACCESS:        197  HIT:         98  MISS:         99
LLC PREFETCH  REQUESTED:          0  ISSUED:          0  USEFUL:          0  USELESS:          0
LLC AVERAGE MISS LATENCY: 647.711 cycles
OPTgen accesses: 53466
OPTgen hits: 13968
OPTgen hit rate: 26.125



DRAM Statistics
 CHANNEL 0
 RQ ROW_BUFFER_HIT:      44617  ROW_BUFFER_MISS:    2327415
 DBUS AVG_CONGESTED_CYCLE:    3.99657
 WQ ROW_BUFFER_HIT:      21159  ROW_BUFFER_MISS:    1245790  FULL:      46132


CPU 0 Branch Prediction Accuracy: 98.929% MPKI: 0.55515 Average ROB Occupancy at Mispredict: 267.756
Branch type MPKI
BRANCH_DIRECT_JUMP: 0.00045
BRANCH_INDIRECT: 1e-05
BRANCH_CONDITIONAL: 0.5534
BRANCH_DIRECT_CALL: 0.00065
BRANCH_INDIRECT_CALL: 0
BRANCH_RETURN: 0.00064

