
*** ChampSim Multicore Out-of-Order Simulator ***

Warmup Instructions: 10000000
Simulation Instructions: 100000000
Number of CPUs: 1
Off-chip DRAM Size: 4 GiB Channels: 1 Width: 64-bit Data Rate: 3200 MT/s

VirtualMemory physical capacity: 8588881920 num_ppages: 2096895
VirtualMemory page size: 4096 log2_page_size: 12

CPU 0 runs /datasets/cs240c-wi22-a00-public/data/Assignment2/perlbench_135B.trace.xz
CPU 0 Bimodal branch predictor
Basic BTB sets: 1024 ways: 8 indirect buffer size: 4096 RAS size: 64
Initialize Hawkeye state
Heartbeat CPU 0 instructions: 10000000 cycles: 2501133 heartbeat IPC: 3.99819 cumulative IPC: 3.99819 (Simulation time: 0 hr 0 min 36 sec) 

Warmup complete CPU 0 instructions: 10000004 cycles: 2501134 (Simulation time: 0 hr 0 min 36 sec) 

Heartbeat CPU 0 instructions: 20000003 cycles: 16331126 heartbeat IPC: 0.723066 cumulative IPC: 0.723066 (Simulation time: 0 hr 1 min 32 sec) 
Heartbeat CPU 0 instructions: 30000004 cycles: 29092807 heartbeat IPC: 0.783596 cumulative IPC: 0.752115 (Simulation time: 0 hr 2 min 26 sec) 
Heartbeat CPU 0 instructions: 40000001 cycles: 40536328 heartbeat IPC: 0.873857 cumulative IPC: 0.788743 (Simulation time: 0 hr 3 min 17 sec) 
Heartbeat CPU 0 instructions: 50000000 cycles: 53154910 heartbeat IPC: 0.792482 cumulative IPC: 0.789675 (Simulation time: 0 hr 4 min 10 sec) 
Heartbeat CPU 0 instructions: 60000000 cycles: 64718605 heartbeat IPC: 0.864775 cumulative IPC: 0.803633 (Simulation time: 0 hr 5 min 0 sec) 
Heartbeat CPU 0 instructions: 70000001 cycles: 77640318 heartbeat IPC: 0.773891 cumulative IPC: 0.798518 (Simulation time: 0 hr 5 min 53 sec) 
Heartbeat CPU 0 instructions: 80000000 cycles: 88580797 heartbeat IPC: 0.914037 cumulative IPC: 0.8132 (Simulation time: 0 hr 6 min 39 sec) 
Heartbeat CPU 0 instructions: 90000004 cycles: 99460004 heartbeat IPC: 0.919185 cumulative IPC: 0.825092 (Simulation time: 0 hr 7 min 24 sec) 
Heartbeat CPU 0 instructions: 100000000 cycles: 112995943 heartbeat IPC: 0.738774 cumulative IPC: 0.814518 (Simulation time: 0 hr 8 min 17 sec) 
Heartbeat CPU 0 instructions: 110000000 cycles: 126286860 heartbeat IPC: 0.752394 cumulative IPC: 0.807848 (Simulation time: 0 hr 9 min 11 sec) 
Finished CPU 0 instructions: 100000000 cycles: 123785728 cumulative IPC: 0.807848 (Simulation time: 0 hr 9 min 11 sec) 

ChampSim completed all CPUs

Region of Interest Statistics

CPU 0 cumulative IPC: 0.807848 instructions: 100000000 cycles: 123785728
cpu0_DTLB TOTAL     ACCESS:   24834143  HIT:   24177395  MISS:     656748
cpu0_DTLB LOAD      ACCESS:   16163516  HIT:   15592076  MISS:     571440
cpu0_DTLB RFO       ACCESS:    8670627  HIT:    8585319  MISS:      85308
cpu0_DTLB PREFETCH  ACCESS:          0  HIT:          0  MISS:          0
cpu0_DTLB WRITEBACK ACCESS:          0  HIT:          0  MISS:          0
cpu0_DTLB TRANSLATION ACCESS:          0  HIT:          0  MISS:          0
cpu0_DTLB PREFETCH  REQUESTED:          0  ISSUED:          0  USEFUL:          0  USELESS:          0
cpu0_DTLB AVERAGE MISS LATENCY: 9.30613 cycles
cpu0_ITLB TOTAL     ACCESS:    8520281  HIT:    8442117  MISS:      78164
cpu0_ITLB LOAD      ACCESS:    8520281  HIT:    8442117  MISS:      78164
cpu0_ITLB RFO       ACCESS:          0  HIT:          0  MISS:          0
cpu0_ITLB PREFETCH  ACCESS:          0  HIT:          0  MISS:          0
cpu0_ITLB WRITEBACK ACCESS:          0  HIT:          0  MISS:          0
cpu0_ITLB TRANSLATION ACCESS:          0  HIT:          0  MISS:          0
cpu0_ITLB PREFETCH  REQUESTED:          0  ISSUED:          0  USEFUL:          0  USELESS:          0
cpu0_ITLB AVERAGE MISS LATENCY: 9.11647 cycles
cpu0_L1I TOTAL     ACCESS:    9977239  HIT:    9296926  MISS:     680313
cpu0_L1I LOAD      ACCESS:    9977239  HIT:    9296926  MISS:     680313
cpu0_L1I RFO       ACCESS:          0  HIT:          0  MISS:          0
cpu0_L1I PREFETCH  ACCESS:          0  HIT:          0  MISS:          0
cpu0_L1I WRITEBACK ACCESS:          0  HIT:          0  MISS:          0
cpu0_L1I TRANSLATION ACCESS:          0  HIT:          0  MISS:          0
cpu0_L1I PREFETCH  REQUESTED:          0  ISSUED:          0  USEFUL:          0  USELESS:          0
cpu0_L1I AVERAGE MISS LATENCY: 12.1274 cycles
cpu0_STLB TOTAL     ACCESS:     734912  HIT:     726459  MISS:       8453
cpu0_STLB LOAD      ACCESS:     649604  HIT:     642241  MISS:       7363
cpu0_STLB RFO       ACCESS:      85308  HIT:      84218  MISS:       1090
cpu0_STLB PREFETCH  ACCESS:          0  HIT:          0  MISS:          0
cpu0_STLB WRITEBACK ACCESS:          0  HIT:          0  MISS:          0
cpu0_STLB TRANSLATION ACCESS:          0  HIT:          0  MISS:          0
cpu0_STLB PREFETCH  REQUESTED:          0  ISSUED:          0  USEFUL:          0  USELESS:          0
cpu0_STLB AVERAGE MISS LATENCY: 24.3758 cycles
cpu0_L1D TOTAL     ACCESS:   32040555  HIT:   31087762  MISS:     952793
cpu0_L1D LOAD      ACCESS:   16947428  HIT:   16082977  MISS:     864451
cpu0_L1D RFO       ACCESS:   15084712  HIT:   14997932  MISS:      86780
cpu0_L1D PREFETCH  ACCESS:          0  HIT:          0  MISS:          0
cpu0_L1D WRITEBACK ACCESS:          0  HIT:          0  MISS:          0
cpu0_L1D TRANSLATION ACCESS:       8415  HIT:       6853  MISS:       1562
cpu0_L1D PREFETCH  REQUESTED:          0  ISSUED:          0  USEFUL:          0  USELESS:          0
cpu0_L1D AVERAGE MISS LATENCY: 17.5673 cycles
cpu0_L2C TOTAL     ACCESS:    1889417  HIT:    1714337  MISS:     175080
cpu0_L2C LOAD      ACCESS:    1544750  HIT:    1392625  MISS:     152125
cpu0_L2C RFO       ACCESS:      86773  HIT:      64518  MISS:      22255
cpu0_L2C PREFETCH  ACCESS:          0  HIT:          0  MISS:          0
cpu0_L2C WRITEBACK ACCESS:     256332  HIT:     255862  MISS:        470
cpu0_L2C TRANSLATION ACCESS:       1562  HIT:       1332  MISS:        230
cpu0_L2C PREFETCH  REQUESTED:          0  ISSUED:          0  USEFUL:          0  USELESS:          0
cpu0_L2C AVERAGE MISS LATENCY: 39.9679 cycles
LLC TOTAL     ACCESS:     226405  HIT:     203036  MISS:      23369
LLC LOAD      ACCESS:     152125  HIT:     133907  MISS:      18218
LLC RFO       ACCESS:      22255  HIT:      17631  MISS:       4624
LLC PREFETCH  ACCESS:          0  HIT:          0  MISS:          0
LLC WRITEBACK ACCESS:      51795  HIT:      51273  MISS:        522
LLC TRANSLATION ACCESS:        230  HIT:        225  MISS:          5
LLC PREFETCH  REQUESTED:          0  ISSUED:          0  USEFUL:          0  USELESS:          0
LLC AVERAGE MISS LATENCY: 142.528 cycles
OPTgen accesses: 3385
OPTgen hits: 2716
OPTgen hit rate: 80.2363



DRAM Statistics
 CHANNEL 0
 RQ ROW_BUFFER_HIT:       4851  ROW_BUFFER_MISS:      17996
 DBUS AVG_CONGESTED_CYCLE:     3.8593
 WQ ROW_BUFFER_HIT:       1218  ROW_BUFFER_MISS:       3322  FULL:          0


CPU 0 Branch Prediction Accuracy: 94.5426% MPKI: 12.0745 Average ROB Occupancy at Mispredict: 40.9006
Branch type MPKI
BRANCH_DIRECT_JUMP: 0.00217
BRANCH_INDIRECT: 0.80239
BRANCH_CONDITIONAL: 9.8183
BRANCH_DIRECT_CALL: 0.00216
BRANCH_INDIRECT_CALL: 1.42497
BRANCH_RETURN: 0.02455

