
*** ChampSim Multicore Out-of-Order Simulator ***

Warmup Instructions: 10000000
Simulation Instructions: 100000000
Number of CPUs: 1
Off-chip DRAM Size: 4 GiB Channels: 1 Width: 64-bit Data Rate: 3200 MT/s

VirtualMemory physical capacity: 8588881920 num_ppages: 2096895
VirtualMemory page size: 4096 log2_page_size: 12

CPU 0 runs /datasets/cs240c-wi22-a00-public/data/Assignment2/sphinx3_1339B.trace.xz
CPU 0 Bimodal branch predictor
Basic BTB sets: 1024 ways: 8 indirect buffer size: 4096 RAS size: 64
Initialize Hawkeye state
Heartbeat CPU 0 instructions: 10000000 cycles: 2584400 heartbeat IPC: 3.86937 cumulative IPC: 3.86937 (Simulation time: 0 hr 0 min 32 sec) 

Warmup complete CPU 0 instructions: 10000004 cycles: 2584401 (Simulation time: 0 hr 0 min 32 sec) 

Heartbeat CPU 0 instructions: 20000003 cycles: 10509239 heartbeat IPC: 1.26186 cumulative IPC: 1.26186 (Simulation time: 0 hr 1 min 25 sec) 
Heartbeat CPU 0 instructions: 30000001 cycles: 18460005 heartbeat IPC: 1.25774 cumulative IPC: 1.25979 (Simulation time: 0 hr 2 min 18 sec) 
Heartbeat CPU 0 instructions: 40000003 cycles: 26922639 heartbeat IPC: 1.18167 cumulative IPC: 1.23263 (Simulation time: 0 hr 3 min 14 sec) 
Heartbeat CPU 0 instructions: 50000004 cycles: 35095052 heartbeat IPC: 1.22363 cumulative IPC: 1.23037 (Simulation time: 0 hr 4 min 9 sec) 
Heartbeat CPU 0 instructions: 60000003 cycles: 43259668 heartbeat IPC: 1.2248 cumulative IPC: 1.22925 (Simulation time: 0 hr 5 min 4 sec) 
Heartbeat CPU 0 instructions: 70000004 cycles: 51664630 heartbeat IPC: 1.18977 cumulative IPC: 1.22249 (Simulation time: 0 hr 5 min 58 sec) 
Heartbeat CPU 0 instructions: 80000001 cycles: 60044877 heartbeat IPC: 1.19328 cumulative IPC: 1.21823 (Simulation time: 0 hr 6 min 54 sec) 
Heartbeat CPU 0 instructions: 90000001 cycles: 68342037 heartbeat IPC: 1.20523 cumulative IPC: 1.21659 (Simulation time: 0 hr 7 min 48 sec) 
Heartbeat CPU 0 instructions: 100000002 cycles: 77105793 heartbeat IPC: 1.14106 cumulative IPC: 1.20771 (Simulation time: 0 hr 8 min 45 sec) 
Heartbeat CPU 0 instructions: 110000000 cycles: 86434604 heartbeat IPC: 1.07195 cumulative IPC: 1.1926 (Simulation time: 0 hr 9 min 42 sec) 
Finished CPU 0 instructions: 100000001 cycles: 83850204 cumulative IPC: 1.1926 (Simulation time: 0 hr 9 min 42 sec) 

ChampSim completed all CPUs

Region of Interest Statistics

CPU 0 cumulative IPC: 1.1926 instructions: 100000001 cycles: 83850204
cpu0_DTLB TOTAL     ACCESS:   16201098  HIT:   16092276  MISS:     108822
cpu0_DTLB LOAD      ACCESS:   15031011  HIT:   14928059  MISS:     102952
cpu0_DTLB RFO       ACCESS:    1170087  HIT:    1164217  MISS:       5870
cpu0_DTLB PREFETCH  ACCESS:          0  HIT:          0  MISS:          0
cpu0_DTLB WRITEBACK ACCESS:          0  HIT:          0  MISS:          0
cpu0_DTLB TRANSLATION ACCESS:          0  HIT:          0  MISS:          0
cpu0_DTLB PREFETCH  REQUESTED:          0  ISSUED:          0  USEFUL:          0  USELESS:          0
cpu0_DTLB AVERAGE MISS LATENCY: 13.4999 cycles
cpu0_ITLB TOTAL     ACCESS:    9179633  HIT:    9179591  MISS:         42
cpu0_ITLB LOAD      ACCESS:    9179633  HIT:    9179591  MISS:         42
cpu0_ITLB RFO       ACCESS:          0  HIT:          0  MISS:          0
cpu0_ITLB PREFETCH  ACCESS:          0  HIT:          0  MISS:          0
cpu0_ITLB WRITEBACK ACCESS:          0  HIT:          0  MISS:          0
cpu0_ITLB TRANSLATION ACCESS:          0  HIT:          0  MISS:          0
cpu0_ITLB PREFETCH  REQUESTED:          0  ISSUED:          0  USEFUL:          0  USELESS:          0
cpu0_ITLB AVERAGE MISS LATENCY: 122.881 cycles
cpu0_L1I TOTAL     ACCESS:     300366  HIT:     298795  MISS:       1571
cpu0_L1I LOAD      ACCESS:     300366  HIT:     298795  MISS:       1571
cpu0_L1I RFO       ACCESS:          0  HIT:          0  MISS:          0
cpu0_L1I PREFETCH  ACCESS:          0  HIT:          0  MISS:          0
cpu0_L1I WRITEBACK ACCESS:          0  HIT:          0  MISS:          0
cpu0_L1I TRANSLATION ACCESS:          0  HIT:          0  MISS:          0
cpu0_L1I PREFETCH  REQUESTED:          0  ISSUED:          0  USEFUL:          0  USELESS:          0
cpu0_L1I AVERAGE MISS LATENCY: 118.13 cycles
cpu0_STLB TOTAL     ACCESS:     108864  HIT:      69747  MISS:      39117
cpu0_STLB LOAD      ACCESS:     102994  HIT:      64955  MISS:      38039
cpu0_STLB RFO       ACCESS:       5870  HIT:       4792  MISS:       1078
cpu0_STLB PREFETCH  ACCESS:          0  HIT:          0  MISS:          0
cpu0_STLB WRITEBACK ACCESS:          0  HIT:          0  MISS:          0
cpu0_STLB TRANSLATION ACCESS:          0  HIT:          0  MISS:          0
cpu0_STLB PREFETCH  REQUESTED:          0  ISSUED:          0  USEFUL:          0  USELESS:          0
cpu0_STLB AVERAGE MISS LATENCY: 12.4979 cycles
cpu0_L1D TOTAL     ACCESS:   12051632  HIT:   10552448  MISS:    1499184
cpu0_L1D LOAD      ACCESS:   10269060  HIT:    8890991  MISS:    1378069
cpu0_L1D RFO       ACCESS:    1745575  HIT:    1624963  MISS:     120612
cpu0_L1D PREFETCH  ACCESS:          0  HIT:          0  MISS:          0
cpu0_L1D WRITEBACK ACCESS:          0  HIT:          0  MISS:          0
cpu0_L1D TRANSLATION ACCESS:      36997  HIT:      36494  MISS:        503
cpu0_L1D PREFETCH  REQUESTED:          0  ISSUED:          0  USEFUL:          0  USELESS:          0
cpu0_L1D AVERAGE MISS LATENCY: 103.041 cycles
cpu0_L2C TOTAL     ACCESS:    1642884  HIT:     358347  MISS:    1284537
cpu0_L2C LOAD      ACCESS:    1379629  HIT:     204277  MISS:    1175352
cpu0_L2C RFO       ACCESS:     120611  HIT:      11983  MISS:     108628
cpu0_L2C PREFETCH  ACCESS:          0  HIT:          0  MISS:          0
cpu0_L2C WRITEBACK ACCESS:     142141  HIT:     141872  MISS:        269
cpu0_L2C TRANSLATION ACCESS:        503  HIT:        215  MISS:        288
cpu0_L2C PREFETCH  REQUESTED:          0  ISSUED:          0  USEFUL:          0  USELESS:          0
cpu0_L2C AVERAGE MISS LATENCY: 107.514 cycles
LLC TOTAL     ACCESS:    1413642  HIT:     762716  MISS:     650926
LLC LOAD      ACCESS:    1175346  HIT:     640773  MISS:     534573
LLC RFO       ACCESS:     108628  HIT:      47914  MISS:      60714
LLC PREFETCH  ACCESS:          0  HIT:          0  MISS:          0
LLC WRITEBACK ACCESS:     129380  HIT:      73895  MISS:      55485
LLC TRANSLATION ACCESS:        288  HIT:        134  MISS:        154
LLC PREFETCH  REQUESTED:          0  ISSUED:          0  USEFUL:          0  USELESS:          0
LLC AVERAGE MISS LATENCY: 170.732 cycles
OPTgen accesses: 22038
OPTgen hits: 14196
OPTgen hit rate: 64.416



DRAM Statistics
 CHANNEL 0
 RQ ROW_BUFFER_HIT:     129541  ROW_BUFFER_MISS:     465736
 DBUS AVG_CONGESTED_CYCLE:    3.87776
 WQ ROW_BUFFER_HIT:      34731  ROW_BUFFER_MISS:      46133  FULL:          0


CPU 0 Branch Prediction Accuracy: 92.5867% MPKI: 6.65069 Average ROB Occupancy at Mispredict: 177.864
Branch type MPKI
BRANCH_DIRECT_JUMP: 0.00112
BRANCH_INDIRECT: 0
BRANCH_CONDITIONAL: 6.64811
BRANCH_DIRECT_CALL: 0.00071
BRANCH_INDIRECT_CALL: 3e-05
BRANCH_RETURN: 0.00072

