
*** ChampSim Multicore Out-of-Order Simulator ***

Warmup Instructions: 10000000
Simulation Instructions: 100000000
Number of CPUs: 1
Off-chip DRAM Size: 4 GiB Channels: 1 Width: 64-bit Data Rate: 3200 MT/s

VirtualMemory physical capacity: 8588881920 num_ppages: 2096895
VirtualMemory page size: 4096 log2_page_size: 12

CPU 0 runs /datasets/cs240c-wi22-a00-public/data/Assignment2/sphinx3_2520B.trace.xz
CPU 0 Bimodal branch predictor
Basic BTB sets: 1024 ways: 8 indirect buffer size: 4096 RAS size: 64
Initialize Hawkeye state
Heartbeat CPU 0 instructions: 10000000 cycles: 2589703 heartbeat IPC: 3.86145 cumulative IPC: 3.86145 (Simulation time: 0 hr 0 min 32 sec) 

Warmup complete CPU 0 instructions: 10000004 cycles: 2589704 (Simulation time: 0 hr 0 min 32 sec) 

Heartbeat CPU 0 instructions: 20000002 cycles: 9334528 heartbeat IPC: 1.48262 cumulative IPC: 1.48262 (Simulation time: 0 hr 1 min 23 sec) 
Heartbeat CPU 0 instructions: 30000002 cycles: 16245481 heartbeat IPC: 1.44698 cumulative IPC: 1.46458 (Simulation time: 0 hr 2 min 14 sec) 
Heartbeat CPU 0 instructions: 40000002 cycles: 23268715 heartbeat IPC: 1.42385 cumulative IPC: 1.45075 (Simulation time: 0 hr 3 min 6 sec) 
Heartbeat CPU 0 instructions: 50000002 cycles: 30161764 heartbeat IPC: 1.45074 cumulative IPC: 1.45074 (Simulation time: 0 hr 3 min 57 sec) 
Heartbeat CPU 0 instructions: 60000001 cycles: 36839262 heartbeat IPC: 1.49757 cumulative IPC: 1.45987 (Simulation time: 0 hr 4 min 47 sec) 
Heartbeat CPU 0 instructions: 70000004 cycles: 43222819 heartbeat IPC: 1.56653 cumulative IPC: 1.47663 (Simulation time: 0 hr 5 min 36 sec) 
Heartbeat CPU 0 instructions: 80000000 cycles: 49792758 heartbeat IPC: 1.52208 cumulative IPC: 1.48295 (Simulation time: 0 hr 6 min 26 sec) 
Heartbeat CPU 0 instructions: 90000003 cycles: 56377603 heartbeat IPC: 1.51864 cumulative IPC: 1.48732 (Simulation time: 0 hr 7 min 15 sec) 
Heartbeat CPU 0 instructions: 100000002 cycles: 63030118 heartbeat IPC: 1.50319 cumulative IPC: 1.48907 (Simulation time: 0 hr 8 min 5 sec) 
Heartbeat CPU 0 instructions: 110000003 cycles: 71804792 heartbeat IPC: 1.13964 cumulative IPC: 1.44477 (Simulation time: 0 hr 9 min 3 sec) 
Finished CPU 0 instructions: 100000004 cycles: 69215089 cumulative IPC: 1.44477 (Simulation time: 0 hr 9 min 3 sec) 

ChampSim completed all CPUs

Region of Interest Statistics

CPU 0 cumulative IPC: 1.44477 instructions: 100000004 cycles: 69215089
cpu0_DTLB TOTAL     ACCESS:   16037640  HIT:   15981734  MISS:      55906
cpu0_DTLB LOAD      ACCESS:   14994155  HIT:   14941604  MISS:      52551
cpu0_DTLB RFO       ACCESS:    1043485  HIT:    1040130  MISS:       3355
cpu0_DTLB PREFETCH  ACCESS:          0  HIT:          0  MISS:          0
cpu0_DTLB WRITEBACK ACCESS:          0  HIT:          0  MISS:          0
cpu0_DTLB TRANSLATION ACCESS:          0  HIT:          0  MISS:          0
cpu0_DTLB PREFETCH  REQUESTED:          0  ISSUED:          0  USEFUL:          0  USELESS:          0
cpu0_DTLB AVERAGE MISS LATENCY: 11.427 cycles
cpu0_ITLB TOTAL     ACCESS:    9326687  HIT:    9326645  MISS:         42
cpu0_ITLB LOAD      ACCESS:    9326687  HIT:    9326645  MISS:         42
cpu0_ITLB RFO       ACCESS:          0  HIT:          0  MISS:          0
cpu0_ITLB PREFETCH  ACCESS:          0  HIT:          0  MISS:          0
cpu0_ITLB WRITEBACK ACCESS:          0  HIT:          0  MISS:          0
cpu0_ITLB TRANSLATION ACCESS:          0  HIT:          0  MISS:          0
cpu0_ITLB PREFETCH  REQUESTED:          0  ISSUED:          0  USEFUL:          0  USELESS:          0
cpu0_ITLB AVERAGE MISS LATENCY: 151.452 cycles
cpu0_L1I TOTAL     ACCESS:     267805  HIT:     266511  MISS:       1294
cpu0_L1I LOAD      ACCESS:     267805  HIT:     266511  MISS:       1294
cpu0_L1I RFO       ACCESS:          0  HIT:          0  MISS:          0
cpu0_L1I PREFETCH  ACCESS:          0  HIT:          0  MISS:          0
cpu0_L1I WRITEBACK ACCESS:          0  HIT:          0  MISS:          0
cpu0_L1I TRANSLATION ACCESS:          0  HIT:          0  MISS:          0
cpu0_L1I PREFETCH  REQUESTED:          0  ISSUED:          0  USEFUL:          0  USELESS:          0
cpu0_L1I AVERAGE MISS LATENCY: 134.645 cycles
cpu0_STLB TOTAL     ACCESS:      55948  HIT:      51141  MISS:       4807
cpu0_STLB LOAD      ACCESS:      52593  HIT:      47918  MISS:       4675
cpu0_STLB RFO       ACCESS:       3355  HIT:       3223  MISS:        132
cpu0_STLB PREFETCH  ACCESS:          0  HIT:          0  MISS:          0
cpu0_STLB WRITEBACK ACCESS:          0  HIT:          0  MISS:          0
cpu0_STLB TRANSLATION ACCESS:          0  HIT:          0  MISS:          0
cpu0_STLB PREFETCH  REQUESTED:          0  ISSUED:          0  USEFUL:          0  USELESS:          0
cpu0_STLB AVERAGE MISS LATENCY: 28.9555 cycles
cpu0_L1D TOTAL     ACCESS:   11392860  HIT:   10053483  MISS:    1339377
cpu0_L1D LOAD      ACCESS:   10048547  HIT:    8834819  MISS:    1213728
cpu0_L1D RFO       ACCESS:    1339784  HIT:    1214249  MISS:     125535
cpu0_L1D PREFETCH  ACCESS:          0  HIT:          0  MISS:          0
cpu0_L1D WRITEBACK ACCESS:          0  HIT:          0  MISS:          0
cpu0_L1D TRANSLATION ACCESS:       4529  HIT:       4415  MISS:        114
cpu0_L1D PREFETCH  REQUESTED:          0  ISSUED:          0  USEFUL:          0  USELESS:          0
cpu0_L1D AVERAGE MISS LATENCY: 94.7655 cycles
cpu0_L2C TOTAL     ACCESS:    1472882  HIT:     251112  MISS:    1221770
cpu0_L2C LOAD      ACCESS:    1215022  HIT:     113608  MISS:    1101414
cpu0_L2C RFO       ACCESS:     125535  HIT:       5426  MISS:     120109
cpu0_L2C PREFETCH  ACCESS:          0  HIT:          0  MISS:          0
cpu0_L2C WRITEBACK ACCESS:     132211  HIT:     132049  MISS:        162
cpu0_L2C TRANSLATION ACCESS:        114  HIT:         29  MISS:         85
cpu0_L2C PREFETCH  REQUESTED:          0  ISSUED:          0  USEFUL:          0  USELESS:          0
cpu0_L2C AVERAGE MISS LATENCY: 91.9374 cycles
LLC TOTAL     ACCESS:    1348260  HIT:     838625  MISS:     509635
LLC LOAD      ACCESS:    1101414  HIT:     655724  MISS:     445690
LLC RFO       ACCESS:     120109  HIT:      73915  MISS:      46194
LLC PREFETCH  ACCESS:          0  HIT:          0  MISS:          0
LLC WRITEBACK ACCESS:     126652  HIT:     108963  MISS:      17689
LLC TRANSLATION ACCESS:         85  HIT:         23  MISS:         62
LLC PREFETCH  REQUESTED:          0  ISSUED:          0  USEFUL:          0  USELESS:          0
LLC AVERAGE MISS LATENCY: 170.062 cycles
OPTgen accesses: 21070
OPTgen hits: 15541
OPTgen hit rate: 73.7589



DRAM Statistics
 CHANNEL 0
 RQ ROW_BUFFER_HIT:     128650  ROW_BUFFER_MISS:     361435
 DBUS AVG_CONGESTED_CYCLE:     3.9023
 WQ ROW_BUFFER_HIT:      23031  ROW_BUFFER_MISS:      30229  FULL:        988


CPU 0 Branch Prediction Accuracy: 93.1904% MPKI: 5.9173 Average ROB Occupancy at Mispredict: 201.289
Branch type MPKI
BRANCH_DIRECT_JUMP: 0.00106
BRANCH_INDIRECT: 0
BRANCH_CONDITIONAL: 5.91482
BRANCH_DIRECT_CALL: 0.00069
BRANCH_INDIRECT_CALL: 3e-05
BRANCH_RETURN: 0.0007

