
*** ChampSim Multicore Out-of-Order Simulator ***

Warmup Instructions: 10000000
Simulation Instructions: 100000000
Number of CPUs: 1
Off-chip DRAM Size: 4 GiB Channels: 1 Width: 64-bit Data Rate: 3200 MT/s

VirtualMemory physical capacity: 8588881920 num_ppages: 2096895
VirtualMemory page size: 4096 log2_page_size: 12

CPU 0 runs /datasets/cs240c-wi22-a00-public/data/Assignment2/tonto_422B.trace.xz
CPU 0 Bimodal branch predictor
Basic BTB sets: 1024 ways: 8 indirect buffer size: 4096 RAS size: 64
Initialize Hawkeye state
Heartbeat CPU 0 instructions: 10000003 cycles: 2501969 heartbeat IPC: 3.99685 cumulative IPC: 3.99685 (Simulation time: 0 hr 0 min 29 sec) 

Warmup complete CPU 0 instructions: 10000003 cycles: 2501969 (Simulation time: 0 hr 0 min 29 sec) 

Heartbeat CPU 0 instructions: 20000000 cycles: 8975831 heartbeat IPC: 1.54467 cumulative IPC: 1.54467 (Simulation time: 0 hr 1 min 14 sec) 
Heartbeat CPU 0 instructions: 30000000 cycles: 15445583 heartbeat IPC: 1.54565 cumulative IPC: 1.54516 (Simulation time: 0 hr 1 min 59 sec) 
Heartbeat CPU 0 instructions: 40000002 cycles: 22042140 heartbeat IPC: 1.51594 cumulative IPC: 1.5353 (Simulation time: 0 hr 2 min 43 sec) 
Heartbeat CPU 0 instructions: 50000003 cycles: 29570998 heartbeat IPC: 1.32822 cumulative IPC: 1.4777 (Simulation time: 0 hr 3 min 33 sec) 
Heartbeat CPU 0 instructions: 60000004 cycles: 37016322 heartbeat IPC: 1.34312 cumulative IPC: 1.44867 (Simulation time: 0 hr 4 min 31 sec) 
Heartbeat CPU 0 instructions: 70000004 cycles: 43590960 heartbeat IPC: 1.521 cumulative IPC: 1.46025 (Simulation time: 0 hr 5 min 24 sec) 
Heartbeat CPU 0 instructions: 80000004 cycles: 49952585 heartbeat IPC: 1.57193 cumulative IPC: 1.47522 (Simulation time: 0 hr 6 min 16 sec) 
Heartbeat CPU 0 instructions: 90000000 cycles: 56674856 heartbeat IPC: 1.48759 cumulative IPC: 1.47675 (Simulation time: 0 hr 7 min 8 sec) 
Heartbeat CPU 0 instructions: 100000002 cycles: 63215390 heartbeat IPC: 1.52893 cumulative IPC: 1.48237 (Simulation time: 0 hr 7 min 58 sec) 
Heartbeat CPU 0 instructions: 110000001 cycles: 69921373 heartbeat IPC: 1.49121 cumulative IPC: 1.48325 (Simulation time: 0 hr 8 min 49 sec) 
Finished CPU 0 instructions: 100000003 cycles: 67419405 cumulative IPC: 1.48325 (Simulation time: 0 hr 8 min 49 sec) 

ChampSim completed all CPUs

Region of Interest Statistics

CPU 0 cumulative IPC: 1.48325 instructions: 100000003 cycles: 67419405
cpu0_DTLB TOTAL     ACCESS:   12821818  HIT:   12785549  MISS:      36269
cpu0_DTLB LOAD      ACCESS:    9457187  HIT:    9430753  MISS:      26434
cpu0_DTLB RFO       ACCESS:    3364631  HIT:    3354796  MISS:       9835
cpu0_DTLB PREFETCH  ACCESS:          0  HIT:          0  MISS:          0
cpu0_DTLB WRITEBACK ACCESS:          0  HIT:          0  MISS:          0
cpu0_DTLB TRANSLATION ACCESS:          0  HIT:          0  MISS:          0
cpu0_DTLB PREFETCH  REQUESTED:          0  ISSUED:          0  USEFUL:          0  USELESS:          0
cpu0_DTLB AVERAGE MISS LATENCY: 13.476 cycles
cpu0_ITLB TOTAL     ACCESS:    4149354  HIT:    4149323  MISS:         31
cpu0_ITLB LOAD      ACCESS:    4149354  HIT:    4149323  MISS:         31
cpu0_ITLB RFO       ACCESS:          0  HIT:          0  MISS:          0
cpu0_ITLB PREFETCH  ACCESS:          0  HIT:          0  MISS:          0
cpu0_ITLB WRITEBACK ACCESS:          0  HIT:          0  MISS:          0
cpu0_ITLB TRANSLATION ACCESS:          0  HIT:          0  MISS:          0
cpu0_ITLB PREFETCH  REQUESTED:          0  ISSUED:          0  USEFUL:          0  USELESS:          0
cpu0_ITLB AVERAGE MISS LATENCY: 211.677 cycles
cpu0_L1I TOTAL     ACCESS:    6343404  HIT:    6342288  MISS:       1116
cpu0_L1I LOAD      ACCESS:    6343404  HIT:    6342288  MISS:       1116
cpu0_L1I RFO       ACCESS:          0  HIT:          0  MISS:          0
cpu0_L1I PREFETCH  ACCESS:          0  HIT:          0  MISS:          0
cpu0_L1I WRITEBACK ACCESS:          0  HIT:          0  MISS:          0
cpu0_L1I TRANSLATION ACCESS:          0  HIT:          0  MISS:          0
cpu0_L1I PREFETCH  REQUESTED:          0  ISSUED:          0  USEFUL:          0  USELESS:          0
cpu0_L1I AVERAGE MISS LATENCY: 176.359 cycles
cpu0_STLB TOTAL     ACCESS:      36300  HIT:      35638  MISS:        662
cpu0_STLB LOAD      ACCESS:      26465  HIT:      26419  MISS:         46
cpu0_STLB RFO       ACCESS:       9835  HIT:       9219  MISS:        616
cpu0_STLB PREFETCH  ACCESS:          0  HIT:          0  MISS:          0
cpu0_STLB WRITEBACK ACCESS:          0  HIT:          0  MISS:          0
cpu0_STLB TRANSLATION ACCESS:          0  HIT:          0  MISS:          0
cpu0_STLB PREFETCH  REQUESTED:          0  ISSUED:          0  USEFUL:          0  USELESS:          0
cpu0_STLB AVERAGE MISS LATENCY: 254.483 cycles
cpu0_L1D TOTAL     ACCESS:   13841691  HIT:   12627358  MISS:    1214333
cpu0_L1D LOAD      ACCESS:    7751461  HIT:    6954506  MISS:     796955
cpu0_L1D RFO       ACCESS:    6089571  HIT:    5672206  MISS:     417365
cpu0_L1D PREFETCH  ACCESS:          0  HIT:          0  MISS:          0
cpu0_L1D WRITEBACK ACCESS:          0  HIT:          0  MISS:          0
cpu0_L1D TRANSLATION ACCESS:        659  HIT:        646  MISS:         13
cpu0_L1D PREFETCH  REQUESTED:          0  ISSUED:          0  USEFUL:          0  USELESS:          0
cpu0_L1D AVERAGE MISS LATENCY: 78.385 cycles
cpu0_L2C TOTAL     ACCESS:    1652884  HIT:     826709  MISS:     826175
cpu0_L2C LOAD      ACCESS:     798071  HIT:     213749  MISS:     584322
cpu0_L2C RFO       ACCESS:     417365  HIT:     175554  MISS:     241811
cpu0_L2C PREFETCH  ACCESS:          0  HIT:          0  MISS:          0
cpu0_L2C WRITEBACK ACCESS:     437435  HIT:     437402  MISS:         33
cpu0_L2C TRANSLATION ACCESS:         13  HIT:          4  MISS:          9
cpu0_L2C PREFETCH  REQUESTED:          0  ISSUED:          0  USEFUL:          0  USELESS:          0
cpu0_L2C AVERAGE MISS LATENCY: 99.2258 cycles
LLC TOTAL     ACCESS:    1190967  HIT:     952727  MISS:     238240
LLC LOAD      ACCESS:     584264  HIT:     446826  MISS:     137438
LLC RFO       ACCESS:     241811  HIT:     185248  MISS:      56563
LLC PREFETCH  ACCESS:          0  HIT:          0  MISS:          0
LLC WRITEBACK ACCESS:     364883  HIT:     320646  MISS:      44237
LLC TRANSLATION ACCESS:          9  HIT:          7  MISS:          2
LLC PREFETCH  REQUESTED:          0  ISSUED:          0  USEFUL:          0  USELESS:          0
LLC AVERAGE MISS LATENCY: 271.238 cycles
OPTgen accesses: 13632
OPTgen hits: 10914
OPTgen hit rate: 80.0616



DRAM Statistics
 CHANNEL 0
 RQ ROW_BUFFER_HIT:      32648  ROW_BUFFER_MISS:     161007
 DBUS AVG_CONGESTED_CYCLE:    3.96792
 WQ ROW_BUFFER_HIT:      20041  ROW_BUFFER_MISS:     112452  FULL:       7533


CPU 0 Branch Prediction Accuracy: 95.8021% MPKI: 4.07385 Average ROB Occupancy at Mispredict: 71.5682
Branch type MPKI
BRANCH_DIRECT_JUMP: 0.00041
BRANCH_INDIRECT: 5e-05
BRANCH_CONDITIONAL: 4.07099
BRANCH_DIRECT_CALL: 0.00126
BRANCH_INDIRECT_CALL: 0
BRANCH_RETURN: 0.00114

