
*** ChampSim Multicore Out-of-Order Simulator ***

Warmup Instructions: 10000000
Simulation Instructions: 100000000
Number of CPUs: 1
Off-chip DRAM Size: 4 GiB Channels: 1 Width: 64-bit Data Rate: 3200 MT/s

VirtualMemory physical capacity: 8588881920 num_ppages: 2096895
VirtualMemory page size: 4096 log2_page_size: 12

CPU 0 runs /datasets/cs240c-wi22-a00-public/data/Assignment2/wrf_1212B.trace.xz
CPU 0 Bimodal branch predictor
Basic BTB sets: 1024 ways: 8 indirect buffer size: 4096 RAS size: 64
Initialize Hawkeye state
Heartbeat CPU 0 instructions: 10000004 cycles: 2552145 heartbeat IPC: 3.91827 cumulative IPC: 3.91827 (Simulation time: 0 hr 0 min 35 sec) 

Warmup complete CPU 0 instructions: 10000004 cycles: 2552145 (Simulation time: 0 hr 0 min 35 sec) 

Heartbeat CPU 0 instructions: 20000000 cycles: 9018758 heartbeat IPC: 1.5464 cumulative IPC: 1.5464 (Simulation time: 0 hr 1 min 28 sec) 
Heartbeat CPU 0 instructions: 30000002 cycles: 15456784 heartbeat IPC: 1.55327 cumulative IPC: 1.54983 (Simulation time: 0 hr 2 min 23 sec) 
Heartbeat CPU 0 instructions: 40000002 cycles: 21899792 heartbeat IPC: 1.55207 cumulative IPC: 1.55058 (Simulation time: 0 hr 3 min 17 sec) 
Heartbeat CPU 0 instructions: 50000003 cycles: 28353296 heartbeat IPC: 1.54955 cumulative IPC: 1.55032 (Simulation time: 0 hr 4 min 7 sec) 
Heartbeat CPU 0 instructions: 60000000 cycles: 34833219 heartbeat IPC: 1.54323 cumulative IPC: 1.5489 (Simulation time: 0 hr 4 min 59 sec) 
Heartbeat CPU 0 instructions: 70000002 cycles: 41477406 heartbeat IPC: 1.50508 cumulative IPC: 1.54142 (Simulation time: 0 hr 5 min 52 sec) 
Heartbeat CPU 0 instructions: 80000001 cycles: 48082123 heartbeat IPC: 1.51407 cumulative IPC: 1.53745 (Simulation time: 0 hr 6 min 44 sec) 
Heartbeat CPU 0 instructions: 90000000 cycles: 54578842 heartbeat IPC: 1.53924 cumulative IPC: 1.53767 (Simulation time: 0 hr 7 min 37 sec) 
Heartbeat CPU 0 instructions: 100000003 cycles: 61020636 heartbeat IPC: 1.55236 cumulative IPC: 1.53929 (Simulation time: 0 hr 8 min 30 sec) 
Heartbeat CPU 0 instructions: 110000001 cycles: 67414326 heartbeat IPC: 1.56404 cumulative IPC: 1.54173 (Simulation time: 0 hr 9 min 25 sec) 
Finished CPU 0 instructions: 100000002 cycles: 64862182 cumulative IPC: 1.54173 (Simulation time: 0 hr 9 min 25 sec) 

ChampSim completed all CPUs

Region of Interest Statistics

CPU 0 cumulative IPC: 1.54173 instructions: 100000002 cycles: 64862182
cpu0_DTLB TOTAL     ACCESS:   18869635  HIT:   18629075  MISS:     240560
cpu0_DTLB LOAD      ACCESS:   12070842  HIT:   11914321  MISS:     156521
cpu0_DTLB RFO       ACCESS:    6798793  HIT:    6714754  MISS:      84039
cpu0_DTLB PREFETCH  ACCESS:          0  HIT:          0  MISS:          0
cpu0_DTLB WRITEBACK ACCESS:          0  HIT:          0  MISS:          0
cpu0_DTLB TRANSLATION ACCESS:          0  HIT:          0  MISS:          0
cpu0_DTLB PREFETCH  REQUESTED:          0  ISSUED:          0  USEFUL:          0  USELESS:          0
cpu0_DTLB AVERAGE MISS LATENCY: 14.6171 cycles
cpu0_ITLB TOTAL     ACCESS:    5651275  HIT:    5651275  MISS:          0
cpu0_ITLB LOAD      ACCESS:    5651275  HIT:    5651275  MISS:          0
cpu0_ITLB RFO       ACCESS:          0  HIT:          0  MISS:          0
cpu0_ITLB PREFETCH  ACCESS:          0  HIT:          0  MISS:          0
cpu0_ITLB WRITEBACK ACCESS:          0  HIT:          0  MISS:          0
cpu0_ITLB TRANSLATION ACCESS:          0  HIT:          0  MISS:          0
cpu0_ITLB PREFETCH  REQUESTED:          0  ISSUED:          0  USEFUL:          0  USELESS:          0
cpu0_ITLB AVERAGE MISS LATENCY: -nan cycles
cpu0_L1I TOTAL     ACCESS:    9013393  HIT:    8969584  MISS:      43809
cpu0_L1I LOAD      ACCESS:    9013393  HIT:    8969584  MISS:      43809
cpu0_L1I RFO       ACCESS:          0  HIT:          0  MISS:          0
cpu0_L1I PREFETCH  ACCESS:          0  HIT:          0  MISS:          0
cpu0_L1I WRITEBACK ACCESS:          0  HIT:          0  MISS:          0
cpu0_L1I TRANSLATION ACCESS:          0  HIT:          0  MISS:          0
cpu0_L1I PREFETCH  REQUESTED:          0  ISSUED:          0  USEFUL:          0  USELESS:          0
cpu0_L1I AVERAGE MISS LATENCY: 11.7708 cycles
cpu0_STLB TOTAL     ACCESS:     240560  HIT:     239297  MISS:       1263
cpu0_STLB LOAD      ACCESS:     156521  HIT:     155272  MISS:       1249
cpu0_STLB RFO       ACCESS:      84039  HIT:      84025  MISS:         14
cpu0_STLB PREFETCH  ACCESS:          0  HIT:          0  MISS:          0
cpu0_STLB WRITEBACK ACCESS:          0  HIT:          0  MISS:          0
cpu0_STLB TRANSLATION ACCESS:          0  HIT:          0  MISS:          0
cpu0_STLB PREFETCH  REQUESTED:          0  ISSUED:          0  USEFUL:          0  USELESS:          0
cpu0_STLB AVERAGE MISS LATENCY: 1050.67 cycles
cpu0_L1D TOTAL     ACCESS:   29575758  HIT:   29172151  MISS:     403607
cpu0_L1D LOAD      ACCESS:   14322450  HIT:   13997802  MISS:     324648
cpu0_L1D RFO       ACCESS:   15252323  HIT:   15173590  MISS:      78733
cpu0_L1D PREFETCH  ACCESS:          0  HIT:          0  MISS:          0
cpu0_L1D WRITEBACK ACCESS:          0  HIT:          0  MISS:          0
cpu0_L1D TRANSLATION ACCESS:        985  HIT:        759  MISS:        226
cpu0_L1D PREFETCH  REQUESTED:          0  ISSUED:          0  USEFUL:          0  USELESS:          0
cpu0_L1D AVERAGE MISS LATENCY: 117.771 cycles
cpu0_L2C TOTAL     ACCESS:     589994  HIT:     511526  MISS:      78468
cpu0_L2C LOAD      ACCESS:     368457  HIT:     291151  MISS:      77306
cpu0_L2C RFO       ACCESS:      77262  HIT:      76347  MISS:        915
cpu0_L2C PREFETCH  ACCESS:          0  HIT:          0  MISS:          0
cpu0_L2C WRITEBACK ACCESS:     144049  HIT:     143820  MISS:        229
cpu0_L2C TRANSLATION ACCESS:        226  HIT:        208  MISS:         18
cpu0_L2C PREFETCH  REQUESTED:          0  ISSUED:          0  USEFUL:          0  USELESS:          0
cpu0_L2C AVERAGE MISS LATENCY: 549.059 cycles
LLC TOTAL     ACCESS:     115113  HIT:      18569  MISS:      96544
LLC LOAD      ACCESS:      77306  HIT:        285  MISS:      77021
LLC RFO       ACCESS:        915  HIT:         10  MISS:        905
LLC PREFETCH  ACCESS:          0  HIT:          0  MISS:          0
LLC WRITEBACK ACCESS:      36874  HIT:      18265  MISS:      18609
LLC TRANSLATION ACCESS:         18  HIT:          9  MISS:          9
LLC PREFETCH  REQUESTED:          0  ISSUED:          0  USEFUL:          0  USELESS:          0
LLC AVERAGE MISS LATENCY: 429.24 cycles
OPTgen accesses: 1385
OPTgen hits: 18
OPTgen hit rate: 1.29964



DRAM Statistics
 CHANNEL 0
 RQ ROW_BUFFER_HIT:       2544  ROW_BUFFER_MISS:      75391
 DBUS AVG_CONGESTED_CYCLE:    3.96234
 WQ ROW_BUFFER_HIT:        362  ROW_BUFFER_MISS:      22743  FULL:          0


CPU 0 Branch Prediction Accuracy: 97.2223% MPKI: 4.86341 Average ROB Occupancy at Mispredict: 61.3835
Branch type MPKI
BRANCH_DIRECT_JUMP: 0.00019
BRANCH_INDIRECT: 0
BRANCH_CONDITIONAL: 4.86284
BRANCH_DIRECT_CALL: 0.00021
BRANCH_INDIRECT_CALL: 0
BRANCH_RETURN: 0.00017

