
*** ChampSim Multicore Out-of-Order Simulator ***

Warmup Instructions: 10000000
Simulation Instructions: 100000000
Number of CPUs: 1
Off-chip DRAM Size: 4 GiB Channels: 1 Width: 64-bit Data Rate: 3200 MT/s

VirtualMemory physical capacity: 8588881920 num_ppages: 2096895
VirtualMemory page size: 4096 log2_page_size: 12

CPU 0 runs /datasets/cs240c-wi22-a00-public/data/Assignment2/xalancbmk_768B.trace.xz
CPU 0 Bimodal branch predictor
Basic BTB sets: 1024 ways: 8 indirect buffer size: 4096 RAS size: 64
Initialize Hawkeye state
Heartbeat CPU 0 instructions: 10000000 cycles: 3078430 heartbeat IPC: 3.24841 cumulative IPC: 3.24841 (Simulation time: 0 hr 0 min 41 sec) 

Warmup complete CPU 0 instructions: 10000005 cycles: 3078431 (Simulation time: 0 hr 0 min 41 sec) 

Heartbeat CPU 0 instructions: 20000000 cycles: 8029541 heartbeat IPC: 2.01975 cumulative IPC: 2.01975 (Simulation time: 0 hr 1 min 38 sec) 
Heartbeat CPU 0 instructions: 30000001 cycles: 13726679 heartbeat IPC: 1.75527 cumulative IPC: 1.87824 (Simulation time: 0 hr 2 min 36 sec) 
Heartbeat CPU 0 instructions: 40000002 cycles: 19078649 heartbeat IPC: 1.86847 cumulative IPC: 1.87497 (Simulation time: 0 hr 3 min 35 sec) 
Heartbeat CPU 0 instructions: 50000000 cycles: 25052052 heartbeat IPC: 1.67409 cumulative IPC: 1.82036 (Simulation time: 0 hr 4 min 32 sec) 
Heartbeat CPU 0 instructions: 60000004 cycles: 30848700 heartbeat IPC: 1.72514 cumulative IPC: 1.80049 (Simulation time: 0 hr 5 min 30 sec) 
Heartbeat CPU 0 instructions: 70000003 cycles: 36722575 heartbeat IPC: 1.70245 cumulative IPC: 1.78337 (Simulation time: 0 hr 6 min 27 sec) 
Heartbeat CPU 0 instructions: 80000001 cycles: 42638875 heartbeat IPC: 1.69025 cumulative IPC: 1.76944 (Simulation time: 0 hr 7 min 25 sec) 
Heartbeat CPU 0 instructions: 90000004 cycles: 48177985 heartbeat IPC: 1.80534 cumulative IPC: 1.77385 (Simulation time: 0 hr 8 min 22 sec) 
Heartbeat CPU 0 instructions: 100000003 cycles: 53448245 heartbeat IPC: 1.89744 cumulative IPC: 1.78678 (Simulation time: 0 hr 9 min 19 sec) 
Heartbeat CPU 0 instructions: 110000000 cycles: 59143435 heartbeat IPC: 1.75587 cumulative IPC: 1.78364 (Simulation time: 0 hr 10 min 16 sec) 
Finished CPU 0 instructions: 100000004 cycles: 56065007 cumulative IPC: 1.78364 (Simulation time: 0 hr 10 min 16 sec) 

ChampSim completed all CPUs

Region of Interest Statistics

CPU 0 cumulative IPC: 1.78364 instructions: 100000004 cycles: 56065007
cpu0_DTLB TOTAL     ACCESS:   16809816  HIT:   15987508  MISS:     822308
cpu0_DTLB LOAD      ACCESS:   15847998  HIT:   15031037  MISS:     816961
cpu0_DTLB RFO       ACCESS:     961818  HIT:     956471  MISS:       5347
cpu0_DTLB PREFETCH  ACCESS:          0  HIT:          0  MISS:          0
cpu0_DTLB WRITEBACK ACCESS:          0  HIT:          0  MISS:          0
cpu0_DTLB TRANSLATION ACCESS:          0  HIT:          0  MISS:          0
cpu0_DTLB PREFETCH  REQUESTED:          0  ISSUED:          0  USEFUL:          0  USELESS:          0
cpu0_DTLB AVERAGE MISS LATENCY: 11.2121 cycles
cpu0_ITLB TOTAL     ACCESS:    2635760  HIT:    2635760  MISS:          0
cpu0_ITLB LOAD      ACCESS:    2635760  HIT:    2635760  MISS:          0
cpu0_ITLB RFO       ACCESS:          0  HIT:          0  MISS:          0
cpu0_ITLB PREFETCH  ACCESS:          0  HIT:          0  MISS:          0
cpu0_ITLB WRITEBACK ACCESS:          0  HIT:          0  MISS:          0
cpu0_ITLB TRANSLATION ACCESS:          0  HIT:          0  MISS:          0
cpu0_ITLB PREFETCH  REQUESTED:          0  ISSUED:          0  USEFUL:          0  USELESS:          0
cpu0_ITLB AVERAGE MISS LATENCY: -nan cycles
cpu0_L1I TOTAL     ACCESS:     223226  HIT:     223212  MISS:         14
cpu0_L1I LOAD      ACCESS:     223226  HIT:     223212  MISS:         14
cpu0_L1I RFO       ACCESS:          0  HIT:          0  MISS:          0
cpu0_L1I PREFETCH  ACCESS:          0  HIT:          0  MISS:          0
cpu0_L1I WRITEBACK ACCESS:          0  HIT:          0  MISS:          0
cpu0_L1I TRANSLATION ACCESS:          0  HIT:          0  MISS:          0
cpu0_L1I PREFETCH  REQUESTED:          0  ISSUED:          0  USEFUL:          0  USELESS:          0
cpu0_L1I AVERAGE MISS LATENCY: 194.857 cycles
cpu0_STLB TOTAL     ACCESS:     822308  HIT:     782921  MISS:      39387
cpu0_STLB LOAD      ACCESS:     816961  HIT:     778274  MISS:      38687
cpu0_STLB RFO       ACCESS:       5347  HIT:       4647  MISS:        700
cpu0_STLB PREFETCH  ACCESS:          0  HIT:          0  MISS:          0
cpu0_STLB WRITEBACK ACCESS:          0  HIT:          0  MISS:          0
cpu0_STLB TRANSLATION ACCESS:          0  HIT:          0  MISS:          0
cpu0_STLB PREFETCH  REQUESTED:          0  ISSUED:          0  USEFUL:          0  USELESS:          0
cpu0_STLB AVERAGE MISS LATENCY: 45.6391 cycles
cpu0_L1D TOTAL     ACCESS:    8137184  HIT:    3397522  MISS:    4739662
cpu0_L1D LOAD      ACCESS:    7107218  HIT:    2407676  MISS:    4699542
cpu0_L1D RFO       ACCESS:     990958  HIT:     967002  MISS:      23956
cpu0_L1D PREFETCH  ACCESS:          0  HIT:          0  MISS:          0
cpu0_L1D WRITEBACK ACCESS:          0  HIT:          0  MISS:          0
cpu0_L1D TRANSLATION ACCESS:      39008  HIT:      22844  MISS:      16164
cpu0_L1D PREFETCH  REQUESTED:          0  ISSUED:          0  USEFUL:          0  USELESS:          0
cpu0_L1D AVERAGE MISS LATENCY: 12.1751 cycles
cpu0_L2C TOTAL     ACCESS:    4822068  HIT:    4789903  MISS:      32165
cpu0_L2C LOAD      ACCESS:    4699556  HIT:    4670365  MISS:      29191
cpu0_L2C RFO       ACCESS:      23956  HIT:      20989  MISS:       2967
cpu0_L2C PREFETCH  ACCESS:          0  HIT:          0  MISS:          0
cpu0_L2C WRITEBACK ACCESS:      82392  HIT:      82392  MISS:          0
cpu0_L2C TRANSLATION ACCESS:      16164  HIT:      16157  MISS:          7
cpu0_L2C PREFETCH  REQUESTED:          0  ISSUED:          0  USEFUL:          0  USELESS:          0
cpu0_L2C AVERAGE MISS LATENCY: 161.557 cycles
LLC TOTAL     ACCESS:      54335  HIT:      21963  MISS:      32372
LLC LOAD      ACCESS:      29191  HIT:       4629  MISS:      24562
LLC RFO       ACCESS:       2967  HIT:        235  MISS:       2732
LLC PREFETCH  ACCESS:          0  HIT:          0  MISS:          0
LLC WRITEBACK ACCESS:      22170  HIT:      17095  MISS:       5075
LLC TRANSLATION ACCESS:          7  HIT:          4  MISS:          3
LLC PREFETCH  REQUESTED:          0  ISSUED:          0  USEFUL:          0  USELESS:          0
LLC AVERAGE MISS LATENCY: 139.658 cycles
OPTgen accesses: 1586
OPTgen hits: 607
OPTgen hit rate: 38.2724



DRAM Statistics
 CHANNEL 0
 RQ ROW_BUFFER_HIT:        147  ROW_BUFFER_MISS:      27150
 DBUS AVG_CONGESTED_CYCLE:    3.87552
 WQ ROW_BUFFER_HIT:       4745  ROW_BUFFER_MISS:      14239  FULL:          0


CPU 0 Branch Prediction Accuracy: 99.3839% MPKI: 2.31335 Average ROB Occupancy at Mispredict: 41.5643
Branch type MPKI
BRANCH_DIRECT_JUMP: 4e-05
BRANCH_INDIRECT: 8e-05
BRANCH_CONDITIONAL: 2.24893
BRANCH_DIRECT_CALL: 3e-05
BRANCH_INDIRECT_CALL: 0.0001
BRANCH_RETURN: 0.06417

