
*** ChampSim Multicore Out-of-Order Simulator ***

Warmup Instructions: 10000000
Simulation Instructions: 100000000
Number of CPUs: 1
Off-chip DRAM Size: 4 GiB Channels: 1 Width: 64-bit Data Rate: 3200 MT/s

VirtualMemory physical capacity: 8588881920 num_ppages: 2096895
VirtualMemory page size: 4096 log2_page_size: 12

CPU 0 runs /datasets/cs240c-wi22-a00-public/data/Assignment2/omnetpp_340B.trace.xz
CPU 0 Bimodal branch predictor
Basic BTB sets: 1024 ways: 8 indirect buffer size: 4096 RAS size: 64
Initialize Hawkeye state
Heartbeat CPU 0 instructions: 10000002 cycles: 2500207 heartbeat IPC: 3.99967 cumulative IPC: 3.99967 (Simulation time: 0 hr 0 min 28 sec) 

Warmup complete CPU 0 instructions: 10000002 cycles: 2500207 (Simulation time: 0 hr 0 min 28 sec) 

Heartbeat CPU 0 instructions: 20000000 cycles: 27837376 heartbeat IPC: 0.394677 cumulative IPC: 0.394677 (Simulation time: 0 hr 1 min 35 sec) 
Heartbeat CPU 0 instructions: 30000002 cycles: 53087079 heartbeat IPC: 0.396044 cumulative IPC: 0.395359 (Simulation time: 0 hr 2 min 45 sec) 
Heartbeat CPU 0 instructions: 40000000 cycles: 77893857 heartbeat IPC: 0.403116 cumulative IPC: 0.397911 (Simulation time: 0 hr 3 min 52 sec) 
Heartbeat CPU 0 instructions: 50000002 cycles: 102907457 heartbeat IPC: 0.399783 cumulative IPC: 0.398378 (Simulation time: 0 hr 4 min 58 sec) 
Heartbeat CPU 0 instructions: 60000001 cycles: 128558315 heartbeat IPC: 0.38985 cumulative IPC: 0.396642 (Simulation time: 0 hr 6 min 10 sec) 
Heartbeat CPU 0 instructions: 70000002 cycles: 154339921 heartbeat IPC: 0.387873 cumulative IPC: 0.395154 (Simulation time: 0 hr 7 min 16 sec) 
Heartbeat CPU 0 instructions: 80000003 cycles: 180531144 heartbeat IPC: 0.381807 cumulative IPC: 0.39319 (Simulation time: 0 hr 8 min 29 sec) 
Heartbeat CPU 0 instructions: 90000000 cycles: 206767580 heartbeat IPC: 0.381149 cumulative IPC: 0.391644 (Simulation time: 0 hr 9 min 34 sec) 
Heartbeat CPU 0 instructions: 100000000 cycles: 233557187 heartbeat IPC: 0.373279 cumulative IPC: 0.389514 (Simulation time: 0 hr 10 min 50 sec) 
Heartbeat CPU 0 instructions: 110000000 cycles: 258769880 heartbeat IPC: 0.396626 cumulative IPC: 0.390214 (Simulation time: 0 hr 11 min 59 sec) 
Finished CPU 0 instructions: 100000000 cycles: 256269675 cumulative IPC: 0.390214 (Simulation time: 0 hr 11 min 59 sec) 

ChampSim completed all CPUs

Region of Interest Statistics

CPU 0 cumulative IPC: 0.390214 instructions: 100000000 cycles: 256269675
cpu0_DTLB TOTAL     ACCESS:   23835957  HIT:   21938753  MISS:    1897204
cpu0_DTLB LOAD      ACCESS:   13868480  HIT:   12287206  MISS:    1581274
cpu0_DTLB RFO       ACCESS:    9967477  HIT:    9651547  MISS:     315930
cpu0_DTLB PREFETCH  ACCESS:          0  HIT:          0  MISS:          0
cpu0_DTLB WRITEBACK ACCESS:          0  HIT:          0  MISS:          0
cpu0_DTLB TRANSLATION ACCESS:          0  HIT:          0  MISS:          0
cpu0_DTLB PREFETCH  REQUESTED:          0  ISSUED:          0  USEFUL:          0  USELESS:          0
cpu0_DTLB AVERAGE MISS LATENCY: 13.1582 cycles
cpu0_ITLB TOTAL     ACCESS:   11128599  HIT:   11093232  MISS:      35367
cpu0_ITLB LOAD      ACCESS:   11128599  HIT:   11093232  MISS:      35367
cpu0_ITLB RFO       ACCESS:          0  HIT:          0  MISS:          0
cpu0_ITLB PREFETCH  ACCESS:          0  HIT:          0  MISS:          0
cpu0_ITLB WRITEBACK ACCESS:          0  HIT:          0  MISS:          0
cpu0_ITLB TRANSLATION ACCESS:          0  HIT:          0  MISS:          0
cpu0_ITLB PREFETCH  REQUESTED:          0  ISSUED:          0  USEFUL:          0  USELESS:          0
cpu0_ITLB AVERAGE MISS LATENCY: 9.28973 cycles
cpu0_L1I TOTAL     ACCESS:    8347364  HIT:    8341014  MISS:       6350
cpu0_L1I LOAD      ACCESS:    8347364  HIT:    8341014  MISS:       6350
cpu0_L1I RFO       ACCESS:          0  HIT:          0  MISS:          0
cpu0_L1I PREFETCH  ACCESS:          0  HIT:          0  MISS:          0
cpu0_L1I WRITEBACK ACCESS:          0  HIT:          0  MISS:          0
cpu0_L1I TRANSLATION ACCESS:          0  HIT:          0  MISS:          0
cpu0_L1I PREFETCH  REQUESTED:          0  ISSUED:          0  USEFUL:          0  USELESS:          0
cpu0_L1I AVERAGE MISS LATENCY: 55.1211 cycles
cpu0_STLB TOTAL     ACCESS:    1932571  HIT:    1457376  MISS:     475195
cpu0_STLB LOAD      ACCESS:    1616641  HIT:    1262738  MISS:     353903
cpu0_STLB RFO       ACCESS:     315930  HIT:     194638  MISS:     121292
cpu0_STLB PREFETCH  ACCESS:          0  HIT:          0  MISS:          0
cpu0_STLB WRITEBACK ACCESS:          0  HIT:          0  MISS:          0
cpu0_STLB TRANSLATION ACCESS:          0  HIT:          0  MISS:          0
cpu0_STLB PREFETCH  REQUESTED:          0  ISSUED:          0  USEFUL:          0  USELESS:          0
cpu0_STLB AVERAGE MISS LATENCY: 16.1525 cycles
cpu0_L1D TOTAL     ACCESS:   31449437  HIT:   28951536  MISS:    2497901
cpu0_L1D LOAD      ACCESS:   15707537  HIT:   13524687  MISS:    2182850
cpu0_L1D RFO       ACCESS:   15301501  HIT:   14990957  MISS:     310544
cpu0_L1D PREFETCH  ACCESS:          0  HIT:          0  MISS:          0
cpu0_L1D WRITEBACK ACCESS:          0  HIT:          0  MISS:          0
cpu0_L1D TRANSLATION ACCESS:     440399  HIT:     435892  MISS:       4507
cpu0_L1D PREFETCH  REQUESTED:          0  ISSUED:          0  USEFUL:          0  USELESS:          0
cpu0_L1D AVERAGE MISS LATENCY: 144.047 cycles
cpu0_L2C TOTAL     ACCESS:    3581336  HIT:    1431338  MISS:    2149998
cpu0_L2C LOAD      ACCESS:    2189162  HIT:     330891  MISS:    1858271
cpu0_L2C RFO       ACCESS:     310544  HIT:      22189  MISS:     288355
cpu0_L2C PREFETCH  ACCESS:          0  HIT:          0  MISS:          0
cpu0_L2C WRITEBACK ACCESS:    1077123  HIT:    1074849  MISS:       2274
cpu0_L2C TRANSLATION ACCESS:       4507  HIT:       3409  MISS:       1098
cpu0_L2C PREFETCH  REQUESTED:          0  ISSUED:          0  USEFUL:          0  USELESS:          0
cpu0_L2C AVERAGE MISS LATENCY: 154.548 cycles
LLC TOTAL     ACCESS:    3079055  HIT:    1055220  MISS:    2023835
LLC LOAD      ACCESS:    1858270  HIT:     425554  MISS:    1432716
LLC RFO       ACCESS:     288355  HIT:      74407  MISS:     213948
LLC PREFETCH  ACCESS:          0  HIT:          0  MISS:          0
LLC WRITEBACK ACCESS:     931332  HIT:     554556  MISS:     376776
LLC TRANSLATION ACCESS:       1098  HIT:        703  MISS:        395
LLC PREFETCH  REQUESTED:          0  ISSUED:          0  USEFUL:          0  USELESS:          0
LLC AVERAGE MISS LATENCY: 141.896 cycles
OPTgen accesses: 36913
OPTgen hits: 14735
OPTgen hit rate: 39.9182



DRAM Statistics
 CHANNEL 0
 RQ ROW_BUFFER_HIT:      91040  ROW_BUFFER_MISS:    1555921
 DBUS AVG_CONGESTED_CYCLE:    3.92383
 WQ ROW_BUFFER_HIT:     172884  ROW_BUFFER_MISS:     532636  FULL:          0


CPU 0 Branch Prediction Accuracy: 94.4212% MPKI: 13.4017 Average ROB Occupancy at Mispredict: 52.2636
Branch type MPKI
BRANCH_DIRECT_JUMP: 0.00017
BRANCH_INDIRECT: 0.04543
BRANCH_CONDITIONAL: 13.2857
BRANCH_DIRECT_CALL: 8e-05
BRANCH_INDIRECT_CALL: 0.04734
BRANCH_RETURN: 0.02301

