
*** ChampSim Multicore Out-of-Order Simulator ***

Warmup Instructions: 10000000
Simulation Instructions: 100000000
Number of CPUs: 1
Off-chip DRAM Size: 4 GiB Channels: 1 Width: 64-bit Data Rate: 3200 MT/s

VirtualMemory physical capacity: 8588881920 num_ppages: 2096895
VirtualMemory page size: 4096 log2_page_size: 12

CPU 0 runs /datasets/cs240c-wi22-a00-public/data/Assignment2/bzip2_259B.trace.xz
CPU 0 Bimodal branch predictor
Basic BTB sets: 1024 ways: 8 indirect buffer size: 4096 RAS size: 64
Initialize SRRIP state
Heartbeat CPU 0 instructions: 10000002 cycles: 2535454 heartbeat IPC: 3.94407 cumulative IPC: 3.94407 (Simulation time: 0 hr 0 min 31 sec) 

Warmup complete CPU 0 instructions: 10000002 cycles: 2535454 (Simulation time: 0 hr 0 min 31 sec) 

Heartbeat CPU 0 instructions: 20000003 cycles: 9115566 heartbeat IPC: 1.51973 cumulative IPC: 1.51973 (Simulation time: 0 hr 1 min 41 sec) 
Heartbeat CPU 0 instructions: 30000002 cycles: 14600555 heartbeat IPC: 1.82316 cumulative IPC: 1.65767 (Simulation time: 0 hr 2 min 39 sec) 
Heartbeat CPU 0 instructions: 40000003 cycles: 21208524 heartbeat IPC: 1.51332 cumulative IPC: 1.60659 (Simulation time: 0 hr 3 min 25 sec) 
Heartbeat CPU 0 instructions: 50000003 cycles: 29410352 heartbeat IPC: 1.21924 cumulative IPC: 1.48838 (Simulation time: 0 hr 3 min 57 sec) 
Heartbeat CPU 0 instructions: 60000001 cycles: 37307615 heartbeat IPC: 1.26626 cumulative IPC: 1.43793 (Simulation time: 0 hr 4 min 30 sec) 
Heartbeat CPU 0 instructions: 70000003 cycles: 43929792 heartbeat IPC: 1.51008 cumulative IPC: 1.44947 (Simulation time: 0 hr 5 min 34 sec) 
Heartbeat CPU 0 instructions: 80000004 cycles: 50699839 heartbeat IPC: 1.47709 cumulative IPC: 1.45336 (Simulation time: 0 hr 6 min 39 sec) 
Heartbeat CPU 0 instructions: 90000001 cycles: 57026215 heartbeat IPC: 1.58068 cumulative IPC: 1.46814 (Simulation time: 0 hr 7 min 31 sec) 
Heartbeat CPU 0 instructions: 100000000 cycles: 65420709 heartbeat IPC: 1.19126 cumulative IPC: 1.43118 (Simulation time: 0 hr 8 min 4 sec) 
Heartbeat CPU 0 instructions: 110000000 cycles: 73388477 heartbeat IPC: 1.25506 cumulative IPC: 1.41137 (Simulation time: 0 hr 8 min 37 sec) 
Finished CPU 0 instructions: 100000003 cycles: 70853028 cumulative IPC: 1.41137 (Simulation time: 0 hr 8 min 37 sec) 

ChampSim completed all CPUs

Region of Interest Statistics

CPU 0 cumulative IPC: 1.41137 instructions: 100000003 cycles: 70853028
cpu0_DTLB TOTAL     ACCESS:   18625563  HIT:   17964294  MISS:     661269
cpu0_DTLB LOAD      ACCESS:    9570159  HIT:    8912842  MISS:     657317
cpu0_DTLB RFO       ACCESS:    9055404  HIT:    9051452  MISS:       3952
cpu0_DTLB PREFETCH  ACCESS:          0  HIT:          0  MISS:          0
cpu0_DTLB WRITEBACK ACCESS:          0  HIT:          0  MISS:          0
cpu0_DTLB TRANSLATION ACCESS:          0  HIT:          0  MISS:          0
cpu0_DTLB PREFETCH  REQUESTED:          0  ISSUED:          0  USEFUL:          0  USELESS:          0
cpu0_DTLB AVERAGE MISS LATENCY: 9.26366 cycles
cpu0_ITLB TOTAL     ACCESS:    6762372  HIT:    6762369  MISS:          3
cpu0_ITLB LOAD      ACCESS:    6762372  HIT:    6762369  MISS:          3
cpu0_ITLB RFO       ACCESS:          0  HIT:          0  MISS:          0
cpu0_ITLB PREFETCH  ACCESS:          0  HIT:          0  MISS:          0
cpu0_ITLB WRITEBACK ACCESS:          0  HIT:          0  MISS:          0
cpu0_ITLB TRANSLATION ACCESS:          0  HIT:          0  MISS:          0
cpu0_ITLB PREFETCH  REQUESTED:          0  ISSUED:          0  USEFUL:          0  USELESS:          0
cpu0_ITLB AVERAGE MISS LATENCY: 395.667 cycles
cpu0_L1I TOTAL     ACCESS:      58678  HIT:      58539  MISS:        139
cpu0_L1I LOAD      ACCESS:      58678  HIT:      58539  MISS:        139
cpu0_L1I RFO       ACCESS:          0  HIT:          0  MISS:          0
cpu0_L1I PREFETCH  ACCESS:          0  HIT:          0  MISS:          0
cpu0_L1I WRITEBACK ACCESS:          0  HIT:          0  MISS:          0
cpu0_L1I TRANSLATION ACCESS:          0  HIT:          0  MISS:          0
cpu0_L1I PREFETCH  REQUESTED:          0  ISSUED:          0  USEFUL:          0  USELESS:          0
cpu0_L1I AVERAGE MISS LATENCY: 212.05 cycles
cpu0_STLB TOTAL     ACCESS:     661272  HIT:     660452  MISS:        820
cpu0_STLB LOAD      ACCESS:     657320  HIT:     657047  MISS:        273
cpu0_STLB RFO       ACCESS:       3952  HIT:       3405  MISS:        547
cpu0_STLB PREFETCH  ACCESS:          0  HIT:          0  MISS:          0
cpu0_STLB WRITEBACK ACCESS:          0  HIT:          0  MISS:          0
cpu0_STLB TRANSLATION ACCESS:          0  HIT:          0  MISS:          0
cpu0_STLB PREFETCH  REQUESTED:          0  ISSUED:          0  USEFUL:          0  USELESS:          0
cpu0_STLB AVERAGE MISS LATENCY: 213.971 cycles
cpu0_L1D TOTAL     ACCESS:   20316684  HIT:   19311123  MISS:    1005561
cpu0_L1D LOAD      ACCESS:   10364746  HIT:    9478385  MISS:     886361
cpu0_L1D RFO       ACCESS:    9951120  HIT:    9832239  MISS:     118881
cpu0_L1D PREFETCH  ACCESS:          0  HIT:          0  MISS:          0
cpu0_L1D WRITEBACK ACCESS:          0  HIT:          0  MISS:          0
cpu0_L1D TRANSLATION ACCESS:        818  HIT:        499  MISS:        319
cpu0_L1D PREFETCH  REQUESTED:          0  ISSUED:          0  USEFUL:          0  USELESS:          0
cpu0_L1D AVERAGE MISS LATENCY: 88.8784 cycles
cpu0_L2C TOTAL     ACCESS:    1222694  HIT:     525090  MISS:     697604
cpu0_L2C LOAD      ACCESS:     886499  HIT:     288924  MISS:     597575
cpu0_L2C RFO       ACCESS:     118879  HIT:      18904  MISS:      99975
cpu0_L2C PREFETCH  ACCESS:          0  HIT:          0  MISS:          0
cpu0_L2C WRITEBACK ACCESS:     216997  HIT:     216961  MISS:         36
cpu0_L2C TRANSLATION ACCESS:        319  HIT:        301  MISS:         18
cpu0_L2C PREFETCH  REQUESTED:          0  ISSUED:          0  USEFUL:          0  USELESS:          0
cpu0_L2C AVERAGE MISS LATENCY: 112.293 cycles
LLC TOTAL     ACCESS:     886567  HIT:     594705  MISS:     291862
LLC LOAD      ACCESS:     597575  HIT:     402758  MISS:     194817
LLC RFO       ACCESS:      99975  HIT:      36575  MISS:      63400
LLC PREFETCH  ACCESS:          0  HIT:          0  MISS:          0
LLC WRITEBACK ACCESS:     188999  HIT:     155371  MISS:      33628
LLC TRANSLATION ACCESS:         18  HIT:          1  MISS:         17
LLC PREFETCH  REQUESTED:          0  ISSUED:          0  USEFUL:          0  USELESS:          0
LLC AVERAGE MISS LATENCY: 218.206 cycles
Insertion Distribution: 
	LOAD 64631 88686 42082 
	RFO 16234 31355 31769 
	PREF 0 0 0 
	WRITEBACK 0 0 33628 
	 1 15 12 
Total Prefetch Downgrades: 0

DRAM Statistics
 CHANNEL 0
 RQ ROW_BUFFER_HIT:      36987  ROW_BUFFER_MISS:     220981
 DBUS AVG_CONGESTED_CYCLE:    3.95355
 WQ ROW_BUFFER_HIT:      13894  ROW_BUFFER_MISS:     115958  FULL:       3546


CPU 0 Branch Prediction Accuracy: 93.3658% MPKI: 11.2167 Average ROB Occupancy at Mispredict: 31.7453
Branch type MPKI
BRANCH_DIRECT_JUMP: 0.0006
BRANCH_INDIRECT: 0.01713
BRANCH_CONDITIONAL: 11.1989
BRANCH_DIRECT_CALL: 5e-05
BRANCH_INDIRECT_CALL: 0
BRANCH_RETURN: 6e-05

