
*** ChampSim Multicore Out-of-Order Simulator ***

Warmup Instructions: 10000000
Simulation Instructions: 100000000
Number of CPUs: 1
Off-chip DRAM Size: 4 GiB Channels: 1 Width: 64-bit Data Rate: 3200 MT/s

VirtualMemory physical capacity: 8588881920 num_ppages: 2096895
VirtualMemory page size: 4096 log2_page_size: 12

CPU 0 runs /datasets/cs240c-wi22-a00-public/data/Assignment2/cactusADM_1495B.trace.xz
CPU 0 Bimodal branch predictor
Basic BTB sets: 1024 ways: 8 indirect buffer size: 4096 RAS size: 64
Initialize SRRIP state
Heartbeat CPU 0 instructions: 10000001 cycles: 3702095 heartbeat IPC: 2.70117 cumulative IPC: 2.70117 (Simulation time: 0 hr 1 min 5 sec) 

Warmup complete CPU 0 instructions: 10000001 cycles: 3702095 (Simulation time: 0 hr 1 min 5 sec) 

Heartbeat CPU 0 instructions: 20000001 cycles: 11208269 heartbeat IPC: 1.33224 cumulative IPC: 1.33224 (Simulation time: 0 hr 2 min 45 sec) 
Heartbeat CPU 0 instructions: 30000003 cycles: 20058288 heartbeat IPC: 1.12994 cumulative IPC: 1.22278 (Simulation time: 0 hr 4 min 32 sec) 
Heartbeat CPU 0 instructions: 40000001 cycles: 29747935 heartbeat IPC: 1.03203 cumulative IPC: 1.15182 (Simulation time: 0 hr 6 min 23 sec) 
Heartbeat CPU 0 instructions: 50000000 cycles: 38542060 heartbeat IPC: 1.13712 cumulative IPC: 1.14811 (Simulation time: 0 hr 8 min 8 sec) 
Heartbeat CPU 0 instructions: 60000000 cycles: 45779652 heartbeat IPC: 1.38168 cumulative IPC: 1.18828 (Simulation time: 0 hr 9 min 44 sec) 
Heartbeat CPU 0 instructions: 70000000 cycles: 54112507 heartbeat IPC: 1.20007 cumulative IPC: 1.19023 (Simulation time: 0 hr 11 min 28 sec) 
Heartbeat CPU 0 instructions: 80000003 cycles: 62654485 heartbeat IPC: 1.17069 cumulative IPC: 1.1874 (Simulation time: 0 hr 13 min 12 sec) 
Heartbeat CPU 0 instructions: 90000002 cycles: 71290037 heartbeat IPC: 1.158 cumulative IPC: 1.18364 (Simulation time: 0 hr 14 min 56 sec) 
Heartbeat CPU 0 instructions: 100000002 cycles: 79894750 heartbeat IPC: 1.16215 cumulative IPC: 1.18122 (Simulation time: 0 hr 16 min 41 sec) 
Heartbeat CPU 0 instructions: 110000001 cycles: 85829117 heartbeat IPC: 1.6851 cumulative IPC: 1.21763 (Simulation time: 0 hr 18 min 10 sec) 
Finished CPU 0 instructions: 100000000 cycles: 82127022 cumulative IPC: 1.21763 (Simulation time: 0 hr 18 min 10 sec) 

ChampSim completed all CPUs

Region of Interest Statistics

CPU 0 cumulative IPC: 1.21763 instructions: 100000000 cycles: 82127022
cpu0_DTLB TOTAL     ACCESS:   21506744  HIT:   19733697  MISS:    1773047
cpu0_DTLB LOAD      ACCESS:   17686408  HIT:   16476959  MISS:    1209449
cpu0_DTLB RFO       ACCESS:    3820336  HIT:    3256738  MISS:     563598
cpu0_DTLB PREFETCH  ACCESS:          0  HIT:          0  MISS:          0
cpu0_DTLB WRITEBACK ACCESS:          0  HIT:          0  MISS:          0
cpu0_DTLB TRANSLATION ACCESS:          0  HIT:          0  MISS:          0
cpu0_DTLB PREFETCH  REQUESTED:          0  ISSUED:          0  USEFUL:          0  USELESS:          0
cpu0_DTLB AVERAGE MISS LATENCY: 17.073 cycles
cpu0_ITLB TOTAL     ACCESS:    1615231  HIT:    1615231  MISS:          0
cpu0_ITLB LOAD      ACCESS:    1615231  HIT:    1615231  MISS:          0
cpu0_ITLB RFO       ACCESS:          0  HIT:          0  MISS:          0
cpu0_ITLB PREFETCH  ACCESS:          0  HIT:          0  MISS:          0
cpu0_ITLB WRITEBACK ACCESS:          0  HIT:          0  MISS:          0
cpu0_ITLB TRANSLATION ACCESS:          0  HIT:          0  MISS:          0
cpu0_ITLB PREFETCH  REQUESTED:          0  ISSUED:          0  USEFUL:          0  USELESS:          0
cpu0_ITLB AVERAGE MISS LATENCY: -nan cycles
cpu0_L1I TOTAL     ACCESS:    8437729  HIT:    8437729  MISS:          0
cpu0_L1I LOAD      ACCESS:    8437729  HIT:    8437729  MISS:          0
cpu0_L1I RFO       ACCESS:          0  HIT:          0  MISS:          0
cpu0_L1I PREFETCH  ACCESS:          0  HIT:          0  MISS:          0
cpu0_L1I WRITEBACK ACCESS:          0  HIT:          0  MISS:          0
cpu0_L1I TRANSLATION ACCESS:          0  HIT:          0  MISS:          0
cpu0_L1I PREFETCH  REQUESTED:          0  ISSUED:          0  USEFUL:          0  USELESS:          0
cpu0_L1I AVERAGE MISS LATENCY: -nan cycles
cpu0_STLB TOTAL     ACCESS:    1773047  HIT:     908348  MISS:     864699
cpu0_STLB LOAD      ACCESS:    1209449  HIT:     650005  MISS:     559444
cpu0_STLB RFO       ACCESS:     563598  HIT:     258343  MISS:     305255
cpu0_STLB PREFETCH  ACCESS:          0  HIT:          0  MISS:          0
cpu0_STLB WRITEBACK ACCESS:          0  HIT:          0  MISS:          0
cpu0_STLB TRANSLATION ACCESS:          0  HIT:          0  MISS:          0
cpu0_STLB PREFETCH  REQUESTED:          0  ISSUED:          0  USEFUL:          0  USELESS:          0
cpu0_STLB AVERAGE MISS LATENCY: 16.4287 cycles
cpu0_L1D TOTAL     ACCESS:   37499374  HIT:   36211107  MISS:    1288267
cpu0_L1D LOAD      ACCESS:   25715154  HIT:   24679067  MISS:    1036087
cpu0_L1D RFO       ACCESS:   10920213  HIT:   10674981  MISS:     245232
cpu0_L1D PREFETCH  ACCESS:          0  HIT:          0  MISS:          0
cpu0_L1D WRITEBACK ACCESS:          0  HIT:          0  MISS:          0
cpu0_L1D TRANSLATION ACCESS:     864007  HIT:     857059  MISS:       6948
cpu0_L1D PREFETCH  REQUESTED:          0  ISSUED:          0  USEFUL:          0  USELESS:          0
cpu0_L1D AVERAGE MISS LATENCY: 290.691 cycles
cpu0_L2C TOTAL     ACCESS:    1537049  HIT:     676883  MISS:     860166
cpu0_L2C LOAD      ACCESS:    1036087  HIT:     421664  MISS:     614423
cpu0_L2C RFO       ACCESS:     245232  HIT:          0  MISS:     245232
cpu0_L2C PREFETCH  ACCESS:          0  HIT:          0  MISS:          0
cpu0_L2C WRITEBACK ACCESS:     248782  HIT:     248593  MISS:        189
cpu0_L2C TRANSLATION ACCESS:       6948  HIT:       6626  MISS:        322
cpu0_L2C PREFETCH  REQUESTED:          0  ISSUED:          0  USEFUL:          0  USELESS:          0
cpu0_L2C AVERAGE MISS LATENCY: 418.872 cycles
LLC TOTAL     ACCESS:    1105585  HIT:     317452  MISS:     788133
LLC LOAD      ACCESS:     614423  HIT:     162834  MISS:     451589
LLC RFO       ACCESS:     245232  HIT:      63549  MISS:     181683
LLC PREFETCH  ACCESS:          0  HIT:          0  MISS:          0
LLC WRITEBACK ACCESS:     245608  HIT:      91065  MISS:     154543
LLC TRANSLATION ACCESS:        322  HIT:          4  MISS:        318
LLC PREFETCH  REQUESTED:          0  ISSUED:          0  USEFUL:          0  USELESS:          0
LLC AVERAGE MISS LATENCY: 434.241 cycles
Insertion Distribution: 
	LOAD 47778 75355 395826 
	RFO 23537 20519 168284 
	PREF 0 0 0 
	WRITEBACK 0 0 164378 
	 1 70 307 
Total Prefetch Downgrades: 0

DRAM Statistics
 CHANNEL 0
 RQ ROW_BUFFER_HIT:       5766  ROW_BUFFER_MISS:     627809
 DBUS AVG_CONGESTED_CYCLE:    3.97697
 WQ ROW_BUFFER_HIT:      17470  ROW_BUFFER_MISS:     195129  FULL:        330


CPU 0 Branch Prediction Accuracy: 97.8411% MPKI: 0.04284 Average ROB Occupancy at Mispredict: 285.585
Branch type MPKI
BRANCH_DIRECT_JUMP: 0
BRANCH_INDIRECT: 0
BRANCH_CONDITIONAL: 0.04284
BRANCH_DIRECT_CALL: 0
BRANCH_INDIRECT_CALL: 0
BRANCH_RETURN: 0

