
*** ChampSim Multicore Out-of-Order Simulator ***

Warmup Instructions: 10000000
Simulation Instructions: 100000000
Number of CPUs: 1
Off-chip DRAM Size: 4 GiB Channels: 1 Width: 64-bit Data Rate: 3200 MT/s

VirtualMemory physical capacity: 8588881920 num_ppages: 2096895
VirtualMemory page size: 4096 log2_page_size: 12

CPU 0 runs /datasets/cs240c-wi22-a00-public/data/Assignment2/GemsFDTD_712B.trace.xz
CPU 0 Bimodal branch predictor
Basic BTB sets: 1024 ways: 8 indirect buffer size: 4096 RAS size: 64
Initialize SRRIP state
Heartbeat CPU 0 instructions: 10000003 cycles: 4479620 heartbeat IPC: 2.23233 cumulative IPC: 2.23233 (Simulation time: 0 hr 1 min 16 sec) 

Warmup complete CPU 0 instructions: 10000003 cycles: 4479620 (Simulation time: 0 hr 1 min 16 sec) 

Heartbeat CPU 0 instructions: 20000000 cycles: 44262814 heartbeat IPC: 0.251362 cumulative IPC: 0.251362 (Simulation time: 0 hr 5 min 58 sec) 
Heartbeat CPU 0 instructions: 30000001 cycles: 83949936 heartbeat IPC: 0.251971 cumulative IPC: 0.251666 (Simulation time: 0 hr 10 min 40 sec) 
Heartbeat CPU 0 instructions: 40000004 cycles: 123813019 heartbeat IPC: 0.250859 cumulative IPC: 0.251397 (Simulation time: 0 hr 15 min 27 sec) 
Heartbeat CPU 0 instructions: 50000004 cycles: 163660958 heartbeat IPC: 0.250954 cumulative IPC: 0.251286 (Simulation time: 0 hr 20 min 9 sec) 
Heartbeat CPU 0 instructions: 60000003 cycles: 203377417 heartbeat IPC: 0.251785 cumulative IPC: 0.251385 (Simulation time: 0 hr 24 min 48 sec) 
Heartbeat CPU 0 instructions: 70000002 cycles: 243237598 heartbeat IPC: 0.250877 cumulative IPC: 0.251301 (Simulation time: 0 hr 29 min 25 sec) 
Heartbeat CPU 0 instructions: 80000000 cycles: 277557495 heartbeat IPC: 0.291376 cumulative IPC: 0.256337 (Simulation time: 0 hr 32 min 36 sec) 
Heartbeat CPU 0 instructions: 90000000 cycles: 312462259 heartbeat IPC: 0.286494 cumulative IPC: 0.259755 (Simulation time: 0 hr 35 min 46 sec) 
Heartbeat CPU 0 instructions: 100000001 cycles: 347458865 heartbeat IPC: 0.285742 cumulative IPC: 0.262407 (Simulation time: 0 hr 38 min 56 sec) 
Heartbeat CPU 0 instructions: 110000002 cycles: 382113976 heartbeat IPC: 0.288558 cumulative IPC: 0.264806 (Simulation time: 0 hr 42 min 3 sec) 
Finished CPU 0 instructions: 100000004 cycles: 377634357 cumulative IPC: 0.264806 (Simulation time: 0 hr 42 min 3 sec) 

ChampSim completed all CPUs

Region of Interest Statistics

CPU 0 cumulative IPC: 0.264806 instructions: 100000004 cycles: 377634357
cpu0_DTLB TOTAL     ACCESS:   29848420  HIT:   29645774  MISS:     202646
cpu0_DTLB LOAD      ACCESS:   23906338  HIT:   23703692  MISS:     202646
cpu0_DTLB RFO       ACCESS:    5942082  HIT:    5942082  MISS:          0
cpu0_DTLB PREFETCH  ACCESS:          0  HIT:          0  MISS:          0
cpu0_DTLB WRITEBACK ACCESS:          0  HIT:          0  MISS:          0
cpu0_DTLB TRANSLATION ACCESS:          0  HIT:          0  MISS:          0
cpu0_DTLB PREFETCH  REQUESTED:          0  ISSUED:          0  USEFUL:          0  USELESS:          0
cpu0_DTLB AVERAGE MISS LATENCY: 158.148 cycles
cpu0_ITLB TOTAL     ACCESS:    1686114  HIT:    1686108  MISS:          6
cpu0_ITLB LOAD      ACCESS:    1686114  HIT:    1686108  MISS:          6
cpu0_ITLB RFO       ACCESS:          0  HIT:          0  MISS:          0
cpu0_ITLB PREFETCH  ACCESS:          0  HIT:          0  MISS:          0
cpu0_ITLB WRITEBACK ACCESS:          0  HIT:          0  MISS:          0
cpu0_ITLB TRANSLATION ACCESS:          0  HIT:          0  MISS:          0
cpu0_ITLB PREFETCH  REQUESTED:          0  ISSUED:          0  USEFUL:          0  USELESS:          0
cpu0_ITLB AVERAGE MISS LATENCY: 336 cycles
cpu0_L1I TOTAL     ACCESS:    3165508  HIT:    3165413  MISS:         95
cpu0_L1I LOAD      ACCESS:    3165508  HIT:    3165413  MISS:         95
cpu0_L1I RFO       ACCESS:          0  HIT:          0  MISS:          0
cpu0_L1I PREFETCH  ACCESS:          0  HIT:          0  MISS:          0
cpu0_L1I WRITEBACK ACCESS:          0  HIT:          0  MISS:          0
cpu0_L1I TRANSLATION ACCESS:          0  HIT:          0  MISS:          0
cpu0_L1I PREFETCH  REQUESTED:          0  ISSUED:          0  USEFUL:          0  USELESS:          0
cpu0_L1I AVERAGE MISS LATENCY: 405.063 cycles
cpu0_STLB TOTAL     ACCESS:     202652  HIT:      49544  MISS:     153108
cpu0_STLB LOAD      ACCESS:     202652  HIT:      49544  MISS:     153108
cpu0_STLB RFO       ACCESS:          0  HIT:          0  MISS:          0
cpu0_STLB PREFETCH  ACCESS:          0  HIT:          0  MISS:          0
cpu0_STLB WRITEBACK ACCESS:          0  HIT:          0  MISS:          0
cpu0_STLB TRANSLATION ACCESS:          0  HIT:          0  MISS:          0
cpu0_STLB PREFETCH  REQUESTED:          0  ISSUED:          0  USEFUL:          0  USELESS:          0
cpu0_STLB AVERAGE MISS LATENCY: 197.351 cycles
cpu0_L1D TOTAL     ACCESS:   29717197  HIT:   26369132  MISS:    3348065
cpu0_L1D LOAD      ACCESS:   18485267  HIT:   15139411  MISS:    3345856
cpu0_L1D RFO       ACCESS:   11079382  HIT:   11079362  MISS:         20
cpu0_L1D PREFETCH  ACCESS:          0  HIT:          0  MISS:          0
cpu0_L1D WRITEBACK ACCESS:          0  HIT:          0  MISS:          0
cpu0_L1D TRANSLATION ACCESS:     152548  HIT:     150359  MISS:       2189
cpu0_L1D PREFETCH  REQUESTED:          0  ISSUED:          0  USEFUL:          0  USELESS:          0
cpu0_L1D AVERAGE MISS LATENCY: 686.055 cycles
cpu0_L2C TOTAL     ACCESS:    4725131  HIT:    1561830  MISS:    3163301
cpu0_L2C LOAD      ACCESS:    3345951  HIT:     182761  MISS:    3163190
cpu0_L2C RFO       ACCESS:         20  HIT:          0  MISS:         20
cpu0_L2C PREFETCH  ACCESS:          0  HIT:          0  MISS:          0
cpu0_L2C WRITEBACK ACCESS:    1376971  HIT:    1376967  MISS:          4
cpu0_L2C TRANSLATION ACCESS:       2189  HIT:       2102  MISS:         87
cpu0_L2C PREFETCH  REQUESTED:          0  ISSUED:          0  USEFUL:          0  USELESS:          0
cpu0_L2C AVERAGE MISS LATENCY: 714.472 cycles
LLC TOTAL     ACCESS:    4538803  HIT:     548979  MISS:    3989824
LLC LOAD      ACCESS:    3163190  HIT:     536536  MISS:    2626654
LLC RFO       ACCESS:         20  HIT:          0  MISS:         20
LLC PREFETCH  ACCESS:          0  HIT:          0  MISS:          0
LLC WRITEBACK ACCESS:    1375506  HIT:      12416  MISS:    1363090
LLC TRANSLATION ACCESS:         87  HIT:         27  MISS:         60
LLC PREFETCH  REQUESTED:          0  ISSUED:          0  USEFUL:          0  USELESS:          0
LLC AVERAGE MISS LATENCY: 549.814 cycles
Insertion Distribution: 
	LOAD 633304 108286 2199073 
	RFO 0 20 0 
	PREF 0 0 0 
	WRITEBACK 0 0 1490036 
	 20 25 33 
Total Prefetch Downgrades: 0

DRAM Statistics
 CHANNEL 0
 RQ ROW_BUFFER_HIT:       8097  ROW_BUFFER_MISS:    2618636
 DBUS AVG_CONGESTED_CYCLE:    3.99782
 WQ ROW_BUFFER_HIT:      22494  ROW_BUFFER_MISS:    1352329  FULL:          0


CPU 0 Branch Prediction Accuracy: 90.9863% MPKI: 1.62566 Average ROB Occupancy at Mispredict: 227.49
Branch type MPKI
BRANCH_DIRECT_JUMP: 5e-05
BRANCH_INDIRECT: 0
BRANCH_CONDITIONAL: 1.62559
BRANCH_DIRECT_CALL: 1e-05
BRANCH_INDIRECT_CALL: 0
BRANCH_RETURN: 1e-05

