
*** ChampSim Multicore Out-of-Order Simulator ***

Warmup Instructions: 10000000
Simulation Instructions: 100000000
Number of CPUs: 1
Off-chip DRAM Size: 4 GiB Channels: 1 Width: 64-bit Data Rate: 3200 MT/s

VirtualMemory physical capacity: 8588881920 num_ppages: 2096895
VirtualMemory page size: 4096 log2_page_size: 12

CPU 0 runs /datasets/cs240c-wi22-a00-public/data/Assignment2/hmmer_7B.trace.xz
CPU 0 Bimodal branch predictor
Basic BTB sets: 1024 ways: 8 indirect buffer size: 4096 RAS size: 64
Initialize SRRIP state
Heartbeat CPU 0 instructions: 10000004 cycles: 3986065 heartbeat IPC: 2.50874 cumulative IPC: 2.50874 (Simulation time: 0 hr 1 min 2 sec) 

Warmup complete CPU 0 instructions: 10000004 cycles: 3986065 (Simulation time: 0 hr 1 min 2 sec) 

Heartbeat CPU 0 instructions: 20000004 cycles: 9224794 heartbeat IPC: 1.90886 cumulative IPC: 1.90886 (Simulation time: 0 hr 2 min 30 sec) 
Heartbeat CPU 0 instructions: 30000001 cycles: 13952415 heartbeat IPC: 2.11523 cumulative IPC: 2.00675 (Simulation time: 0 hr 3 min 56 sec) 
Heartbeat CPU 0 instructions: 40000001 cycles: 18472904 heartbeat IPC: 2.21215 cumulative IPC: 2.07084 (Simulation time: 0 hr 5 min 20 sec) 
Heartbeat CPU 0 instructions: 50000000 cycles: 23652309 heartbeat IPC: 1.93072 cumulative IPC: 2.03394 (Simulation time: 0 hr 6 min 49 sec) 
Heartbeat CPU 0 instructions: 60000000 cycles: 27979081 heartbeat IPC: 2.31119 cumulative IPC: 2.08394 (Simulation time: 0 hr 8 min 12 sec) 
Heartbeat CPU 0 instructions: 70000003 cycles: 32301400 heartbeat IPC: 2.31357 cumulative IPC: 2.11899 (Simulation time: 0 hr 9 min 34 sec) 
Heartbeat CPU 0 instructions: 80000001 cycles: 36611117 heartbeat IPC: 2.32034 cumulative IPC: 2.14559 (Simulation time: 0 hr 10 min 57 sec) 
Heartbeat CPU 0 instructions: 90000004 cycles: 40930562 heartbeat IPC: 2.31511 cumulative IPC: 2.16541 (Simulation time: 0 hr 12 min 19 sec) 
Heartbeat CPU 0 instructions: 100000002 cycles: 45249626 heartbeat IPC: 2.31532 cumulative IPC: 2.1811 (Simulation time: 0 hr 13 min 42 sec) 
Heartbeat CPU 0 instructions: 110000001 cycles: 49578603 heartbeat IPC: 2.31001 cumulative IPC: 2.19334 (Simulation time: 0 hr 15 min 3 sec) 
Finished CPU 0 instructions: 100000002 cycles: 45592539 cumulative IPC: 2.19334 (Simulation time: 0 hr 15 min 3 sec) 

ChampSim completed all CPUs

Region of Interest Statistics

CPU 0 cumulative IPC: 2.19334 instructions: 100000002 cycles: 45592539
cpu0_DTLB TOTAL     ACCESS:   40544033  HIT:   40529880  MISS:      14153
cpu0_DTLB LOAD      ACCESS:   32389192  HIT:   32381478  MISS:       7714
cpu0_DTLB RFO       ACCESS:    8154841  HIT:    8148402  MISS:       6439
cpu0_DTLB PREFETCH  ACCESS:          0  HIT:          0  MISS:          0
cpu0_DTLB WRITEBACK ACCESS:          0  HIT:          0  MISS:          0
cpu0_DTLB TRANSLATION ACCESS:          0  HIT:          0  MISS:          0
cpu0_DTLB PREFETCH  REQUESTED:          0  ISSUED:          0  USEFUL:          0  USELESS:          0
cpu0_DTLB AVERAGE MISS LATENCY: 14.2815 cycles
cpu0_ITLB TOTAL     ACCESS:     799464  HIT:     799392  MISS:         72
cpu0_ITLB LOAD      ACCESS:     799464  HIT:     799392  MISS:         72
cpu0_ITLB RFO       ACCESS:          0  HIT:          0  MISS:          0
cpu0_ITLB PREFETCH  ACCESS:          0  HIT:          0  MISS:          0
cpu0_ITLB WRITEBACK ACCESS:          0  HIT:          0  MISS:          0
cpu0_ITLB TRANSLATION ACCESS:          0  HIT:          0  MISS:          0
cpu0_ITLB PREFETCH  REQUESTED:          0  ISSUED:          0  USEFUL:          0  USELESS:          0
cpu0_ITLB AVERAGE MISS LATENCY: 21 cycles
cpu0_L1I TOTAL     ACCESS:      62188  HIT:      62083  MISS:        105
cpu0_L1I LOAD      ACCESS:      62188  HIT:      62083  MISS:        105
cpu0_L1I RFO       ACCESS:          0  HIT:          0  MISS:          0
cpu0_L1I PREFETCH  ACCESS:          0  HIT:          0  MISS:          0
cpu0_L1I WRITEBACK ACCESS:          0  HIT:          0  MISS:          0
cpu0_L1I TRANSLATION ACCESS:          0  HIT:          0  MISS:          0
cpu0_L1I PREFETCH  REQUESTED:          0  ISSUED:          0  USEFUL:          0  USELESS:          0
cpu0_L1I AVERAGE MISS LATENCY: 105.79 cycles
cpu0_STLB TOTAL     ACCESS:      14225  HIT:      13770  MISS:        455
cpu0_STLB LOAD      ACCESS:       7786  HIT:       7778  MISS:          8
cpu0_STLB RFO       ACCESS:       6439  HIT:       5992  MISS:        447
cpu0_STLB PREFETCH  ACCESS:          0  HIT:          0  MISS:          0
cpu0_STLB WRITEBACK ACCESS:          0  HIT:          0  MISS:          0
cpu0_STLB TRANSLATION ACCESS:          0  HIT:          0  MISS:          0
cpu0_STLB PREFETCH  REQUESTED:          0  ISSUED:          0  USEFUL:          0  USELESS:          0
cpu0_STLB AVERAGE MISS LATENCY: 165.978 cycles
cpu0_L1D TOTAL     ACCESS:   33521846  HIT:   33051726  MISS:     470120
cpu0_L1D LOAD      ACCESS:   28672558  HIT:   28511169  MISS:     161389
cpu0_L1D RFO       ACCESS:    4848834  HIT:    4540126  MISS:     308708
cpu0_L1D PREFETCH  ACCESS:          0  HIT:          0  MISS:          0
cpu0_L1D WRITEBACK ACCESS:          0  HIT:          0  MISS:          0
cpu0_L1D TRANSLATION ACCESS:        454  HIT:        431  MISS:         23
cpu0_L1D PREFETCH  REQUESTED:          0  ISSUED:          0  USEFUL:          0  USELESS:          0
cpu0_L1D AVERAGE MISS LATENCY: 233.181 cycles
cpu0_L2C TOTAL     ACCESS:     777377  HIT:     472452  MISS:     304925
cpu0_L2C LOAD      ACCESS:     161494  HIT:     149258  MISS:      12236
cpu0_L2C RFO       ACCESS:     308708  HIT:      16074  MISS:     292634
cpu0_L2C PREFETCH  ACCESS:          0  HIT:          0  MISS:          0
cpu0_L2C WRITEBACK ACCESS:     307152  HIT:     307105  MISS:         47
cpu0_L2C TRANSLATION ACCESS:         23  HIT:         15  MISS:          8
cpu0_L2C PREFETCH  REQUESTED:          0  ISSUED:          0  USEFUL:          0  USELESS:          0
cpu0_L2C AVERAGE MISS LATENCY: 342.567 cycles
LLC TOTAL     ACCESS:     596547  HIT:     451869  MISS:     144678
LLC LOAD      ACCESS:      12235  HIT:      10871  MISS:       1364
LLC RFO       ACCESS:     292633  HIT:     213287  MISS:      79346
LLC PREFETCH  ACCESS:          0  HIT:          0  MISS:          0
LLC WRITEBACK ACCESS:     291671  HIT:     227704  MISS:      63967
LLC TRANSLATION ACCESS:          8  HIT:          7  MISS:          1
LLC PREFETCH  REQUESTED:          0  ISSUED:          0  USEFUL:          0  USELESS:          0
LLC AVERAGE MISS LATENCY: 677.591 cycles
Insertion Distribution: 
	LOAD 593 3275 48 
	RFO 3022 30578 76465 
	PREF 0 0 0 
	WRITEBACK 0 0 64818 
	 0 13 0 
Total Prefetch Downgrades: 0

DRAM Statistics
 CHANNEL 0
 RQ ROW_BUFFER_HIT:       1136  ROW_BUFFER_MISS:      79572
 DBUS AVG_CONGESTED_CYCLE:    3.99379
 WQ ROW_BUFFER_HIT:       3948  ROW_BUFFER_MISS:      72453  FULL:      18841


CPU 0 Branch Prediction Accuracy: 98.9368% MPKI: 0.40856 Average ROB Occupancy at Mispredict: 252.348
Branch type MPKI
BRANCH_DIRECT_JUMP: 0.00016
BRANCH_INDIRECT: 0.00157
BRANCH_CONDITIONAL: 0.40659
BRANCH_DIRECT_CALL: 9e-05
BRANCH_INDIRECT_CALL: 3e-05
BRANCH_RETURN: 0.00012

