
*** ChampSim Multicore Out-of-Order Simulator ***

Warmup Instructions: 10000000
Simulation Instructions: 100000000
Number of CPUs: 1
Off-chip DRAM Size: 4 GiB Channels: 1 Width: 64-bit Data Rate: 3200 MT/s

VirtualMemory physical capacity: 8588881920 num_ppages: 2096895
VirtualMemory page size: 4096 log2_page_size: 12

CPU 0 runs /datasets/cs240c-wi22-a00-public/data/Assignment2/leslie3d_1186B.trace.xz
CPU 0 Bimodal branch predictor
Basic BTB sets: 1024 ways: 8 indirect buffer size: 4096 RAS size: 64
Initialize SRRIP state
Heartbeat CPU 0 instructions: 10000000 cycles: 4308785 heartbeat IPC: 2.32084 cumulative IPC: 2.32084 (Simulation time: 0 hr 1 min 18 sec) 

Warmup complete CPU 0 instructions: 10000005 cycles: 4308786 (Simulation time: 0 hr 1 min 18 sec) 

Heartbeat CPU 0 instructions: 20000000 cycles: 17855872 heartbeat IPC: 0.738166 cumulative IPC: 0.738166 (Simulation time: 0 hr 3 min 27 sec) 
Heartbeat CPU 0 instructions: 30000000 cycles: 31484063 heartbeat IPC: 0.733773 cumulative IPC: 0.735963 (Simulation time: 0 hr 5 min 36 sec) 
Heartbeat CPU 0 instructions: 40000004 cycles: 45046280 heartbeat IPC: 0.737343 cumulative IPC: 0.736422 (Simulation time: 0 hr 7 min 45 sec) 
Heartbeat CPU 0 instructions: 50000001 cycles: 61285590 heartbeat IPC: 0.61579 cumulative IPC: 0.70204 (Simulation time: 0 hr 9 min 59 sec) 
Heartbeat CPU 0 instructions: 60000000 cycles: 96367093 heartbeat IPC: 0.28505 cumulative IPC: 0.543134 (Simulation time: 0 hr 13 min 51 sec) 
Heartbeat CPU 0 instructions: 70000000 cycles: 124933065 heartbeat IPC: 0.350067 cumulative IPC: 0.497412 (Simulation time: 0 hr 17 min 18 sec) 
Heartbeat CPU 0 instructions: 80000003 cycles: 135159523 heartbeat IPC: 0.977856 cumulative IPC: 0.534961 (Simulation time: 0 hr 19 min 13 sec) 
Heartbeat CPU 0 instructions: 90000002 cycles: 145313313 heartbeat IPC: 0.984854 cumulative IPC: 0.567358 (Simulation time: 0 hr 21 min 8 sec) 
Heartbeat CPU 0 instructions: 100000000 cycles: 155466286 heartbeat IPC: 0.984933 cumulative IPC: 0.595405 (Simulation time: 0 hr 23 min 3 sec) 
Heartbeat CPU 0 instructions: 110000000 cycles: 165647755 heartbeat IPC: 0.982177 cumulative IPC: 0.619813 (Simulation time: 0 hr 25 min 0 sec) 
Finished CPU 0 instructions: 100000000 cycles: 161338970 cumulative IPC: 0.619813 (Simulation time: 0 hr 25 min 0 sec) 

ChampSim completed all CPUs

Region of Interest Statistics

CPU 0 cumulative IPC: 0.619813 instructions: 100000000 cycles: 161338970
cpu0_DTLB TOTAL     ACCESS:   27961629  HIT:   27864013  MISS:      97616
cpu0_DTLB LOAD      ACCESS:   23298280  HIT:   23212416  MISS:      85864
cpu0_DTLB RFO       ACCESS:    4663349  HIT:    4651597  MISS:      11752
cpu0_DTLB PREFETCH  ACCESS:          0  HIT:          0  MISS:          0
cpu0_DTLB WRITEBACK ACCESS:          0  HIT:          0  MISS:          0
cpu0_DTLB TRANSLATION ACCESS:          0  HIT:          0  MISS:          0
cpu0_DTLB PREFETCH  REQUESTED:          0  ISSUED:          0  USEFUL:          0  USELESS:          0
cpu0_DTLB AVERAGE MISS LATENCY: 51.5062 cycles
cpu0_ITLB TOTAL     ACCESS:    2904561  HIT:    2904548  MISS:         13
cpu0_ITLB LOAD      ACCESS:    2904561  HIT:    2904548  MISS:         13
cpu0_ITLB RFO       ACCESS:          0  HIT:          0  MISS:          0
cpu0_ITLB PREFETCH  ACCESS:          0  HIT:          0  MISS:          0
cpu0_ITLB WRITEBACK ACCESS:          0  HIT:          0  MISS:          0
cpu0_ITLB TRANSLATION ACCESS:          0  HIT:          0  MISS:          0
cpu0_ITLB PREFETCH  REQUESTED:          0  ISSUED:          0  USEFUL:          0  USELESS:          0
cpu0_ITLB AVERAGE MISS LATENCY: 294.231 cycles
cpu0_L1I TOTAL     ACCESS:    1738598  HIT:    1738218  MISS:        380
cpu0_L1I LOAD      ACCESS:    1738598  HIT:    1738218  MISS:        380
cpu0_L1I RFO       ACCESS:          0  HIT:          0  MISS:          0
cpu0_L1I PREFETCH  ACCESS:          0  HIT:          0  MISS:          0
cpu0_L1I WRITEBACK ACCESS:          0  HIT:          0  MISS:          0
cpu0_L1I TRANSLATION ACCESS:          0  HIT:          0  MISS:          0
cpu0_L1I PREFETCH  REQUESTED:          0  ISSUED:          0  USEFUL:          0  USELESS:          0
cpu0_L1I AVERAGE MISS LATENCY: 327.295 cycles
cpu0_STLB TOTAL     ACCESS:      97629  HIT:      70227  MISS:      27402
cpu0_STLB LOAD      ACCESS:      85877  HIT:      63150  MISS:      22727
cpu0_STLB RFO       ACCESS:      11752  HIT:       7077  MISS:       4675
cpu0_STLB PREFETCH  ACCESS:          0  HIT:          0  MISS:          0
cpu0_STLB WRITEBACK ACCESS:          0  HIT:          0  MISS:          0
cpu0_STLB TRANSLATION ACCESS:          0  HIT:          0  MISS:          0
cpu0_STLB PREFETCH  REQUESTED:          0  ISSUED:          0  USEFUL:          0  USELESS:          0
cpu0_STLB AVERAGE MISS LATENCY: 151.503 cycles
cpu0_L1D TOTAL     ACCESS:   27050302  HIT:   23147423  MISS:    3902879
cpu0_L1D LOAD      ACCESS:   17825112  HIT:   14641249  MISS:    3183863
cpu0_L1D RFO       ACCESS:    9200608  HIT:    8485035  MISS:     715573
cpu0_L1D PREFETCH  ACCESS:          0  HIT:          0  MISS:          0
cpu0_L1D WRITEBACK ACCESS:          0  HIT:          0  MISS:          0
cpu0_L1D TRANSLATION ACCESS:      24582  HIT:      21139  MISS:       3443
cpu0_L1D PREFETCH  REQUESTED:          0  ISSUED:          0  USEFUL:          0  USELESS:          0
cpu0_L1D AVERAGE MISS LATENCY: 348.92 cycles
cpu0_L2C TOTAL     ACCESS:    4956409  HIT:    2399309  MISS:    2557100
cpu0_L2C LOAD      ACCESS:    3184191  HIT:    1037177  MISS:    2147014
cpu0_L2C RFO       ACCESS:     715264  HIT:     307596  MISS:     407668
cpu0_L2C PREFETCH  ACCESS:          0  HIT:          0  MISS:          0
cpu0_L2C WRITEBACK ACCESS:    1053511  HIT:    1051303  MISS:       2208
cpu0_L2C TRANSLATION ACCESS:       3443  HIT:       3233  MISS:        210
cpu0_L2C PREFETCH  REQUESTED:          0  ISSUED:          0  USEFUL:          0  USELESS:          0
cpu0_L2C AVERAGE MISS LATENCY: 515.755 cycles
LLC TOTAL     ACCESS:    3217218  HIT:     859874  MISS:    2357344
LLC LOAD      ACCESS:    2147006  HIT:     562157  MISS:    1584849
LLC RFO       ACCESS:     407658  HIT:     114192  MISS:     293466
LLC PREFETCH  ACCESS:          0  HIT:          0  MISS:          0
LLC WRITEBACK ACCESS:     662344  HIT:     183337  MISS:     479007
LLC TRANSLATION ACCESS:        210  HIT:        188  MISS:         22
LLC PREFETCH  REQUESTED:          0  ISSUED:          0  USEFUL:          0  USELESS:          0
LLC AVERAGE MISS LATENCY: 536.654 cycles
Insertion Distribution: 
	LOAD 210362 256470 1283949 
	RFO 3156 27615 265137 
	PREF 0 0 0 
	WRITEBACK 0 0 497511 
	 2 35 4 
Total Prefetch Downgrades: 0

DRAM Statistics
 CHANNEL 0
 RQ ROW_BUFFER_HIT:     213374  ROW_BUFFER_MISS:    1664873
 DBUS AVG_CONGESTED_CYCLE:    3.94932
 WQ ROW_BUFFER_HIT:      41393  ROW_BUFFER_MISS:     491583  FULL:      21104


CPU 0 Branch Prediction Accuracy: 96.8384% MPKI: 1.47634 Average ROB Occupancy at Mispredict: 311.024
Branch type MPKI
BRANCH_DIRECT_JUMP: 0.00016
BRANCH_INDIRECT: 0
BRANCH_CONDITIONAL: 1.47504
BRANCH_DIRECT_CALL: 0.00057
BRANCH_INDIRECT_CALL: 0
BRANCH_RETURN: 0.00057

