
*** ChampSim Multicore Out-of-Order Simulator ***

Warmup Instructions: 10000000
Simulation Instructions: 100000000
Number of CPUs: 1
Off-chip DRAM Size: 4 GiB Channels: 1 Width: 64-bit Data Rate: 3200 MT/s

VirtualMemory physical capacity: 8588881920 num_ppages: 2096895
VirtualMemory page size: 4096 log2_page_size: 12

CPU 0 runs /datasets/cs240c-wi22-a00-public/data/Assignment2/mcf_158B.trace.xz
CPU 0 Bimodal branch predictor
Basic BTB sets: 1024 ways: 8 indirect buffer size: 4096 RAS size: 64
Initialize SRRIP state
Heartbeat CPU 0 instructions: 10000002 cycles: 3864072 heartbeat IPC: 2.58794 cumulative IPC: 2.58794 (Simulation time: 0 hr 1 min 0 sec) 

Warmup complete CPU 0 instructions: 10000002 cycles: 3864072 (Simulation time: 0 hr 1 min 0 sec) 

Heartbeat CPU 0 instructions: 20000000 cycles: 136704453 heartbeat IPC: 0.0752783 cumulative IPC: 0.0752783 (Simulation time: 0 hr 4 min 36 sec) 
Heartbeat CPU 0 instructions: 30000000 cycles: 263762801 heartbeat IPC: 0.078704 cumulative IPC: 0.076953 (Simulation time: 0 hr 8 min 2 sec) 
Heartbeat CPU 0 instructions: 40000001 cycles: 388301555 heartbeat IPC: 0.0802963 cumulative IPC: 0.0780361 (Simulation time: 0 hr 11 min 26 sec) 
Heartbeat CPU 0 instructions: 50000000 cycles: 502990018 heartbeat IPC: 0.0871927 cumulative IPC: 0.0801401 (Simulation time: 0 hr 14 min 35 sec) 
Heartbeat CPU 0 instructions: 60000000 cycles: 613675336 heartbeat IPC: 0.0903462 cumulative IPC: 0.0819926 (Simulation time: 0 hr 17 min 39 sec) 
Heartbeat CPU 0 instructions: 70000002 cycles: 721858232 heartbeat IPC: 0.0924361 cumulative IPC: 0.0835661 (Simulation time: 0 hr 20 min 39 sec) 
Heartbeat CPU 0 instructions: 80000000 cycles: 832533996 heartbeat IPC: 0.090354 cumulative IPC: 0.0844727 (Simulation time: 0 hr 23 min 46 sec) 
Heartbeat CPU 0 instructions: 90000003 cycles: 946763146 heartbeat IPC: 0.0875434 cumulative IPC: 0.0848447 (Simulation time: 0 hr 26 min 56 sec) 
Heartbeat CPU 0 instructions: 100000003 cycles: 1062608812 heartbeat IPC: 0.0863217 cumulative IPC: 0.0850063 (Simulation time: 0 hr 30 min 8 sec) 
Heartbeat CPU 0 instructions: 110000001 cycles: 1180149234 heartbeat IPC: 0.0850771 cumulative IPC: 0.0850134 (Simulation time: 0 hr 33 min 26 sec) 
Finished CPU 0 instructions: 100000002 cycles: 1176285163 cumulative IPC: 0.0850134 (Simulation time: 0 hr 33 min 26 sec) 

ChampSim completed all CPUs

Region of Interest Statistics

CPU 0 cumulative IPC: 0.0850134 instructions: 100000002 cycles: 1176285163
cpu0_DTLB TOTAL     ACCESS:   23552309  HIT:   12730625  MISS:   10821684
cpu0_DTLB LOAD      ACCESS:   20431388  HIT:    9976771  MISS:   10454617
cpu0_DTLB RFO       ACCESS:    3120921  HIT:    2753854  MISS:     367067
cpu0_DTLB PREFETCH  ACCESS:          0  HIT:          0  MISS:          0
cpu0_DTLB WRITEBACK ACCESS:          0  HIT:          0  MISS:          0
cpu0_DTLB TRANSLATION ACCESS:          0  HIT:          0  MISS:          0
cpu0_DTLB PREFETCH  REQUESTED:          0  ISSUED:          0  USEFUL:          0  USELESS:          0
cpu0_DTLB AVERAGE MISS LATENCY: 10.9727 cycles
cpu0_ITLB TOTAL     ACCESS:   12964007  HIT:   12964007  MISS:          0
cpu0_ITLB LOAD      ACCESS:   12964007  HIT:   12964007  MISS:          0
cpu0_ITLB RFO       ACCESS:          0  HIT:          0  MISS:          0
cpu0_ITLB PREFETCH  ACCESS:          0  HIT:          0  MISS:          0
cpu0_ITLB WRITEBACK ACCESS:          0  HIT:          0  MISS:          0
cpu0_ITLB TRANSLATION ACCESS:          0  HIT:          0  MISS:          0
cpu0_ITLB PREFETCH  REQUESTED:          0  ISSUED:          0  USEFUL:          0  USELESS:          0
cpu0_ITLB AVERAGE MISS LATENCY: -nan cycles
cpu0_L1I TOTAL     ACCESS:         19  HIT:         14  MISS:          5
cpu0_L1I LOAD      ACCESS:         19  HIT:         14  MISS:          5
cpu0_L1I RFO       ACCESS:          0  HIT:          0  MISS:          0
cpu0_L1I PREFETCH  ACCESS:          0  HIT:          0  MISS:          0
cpu0_L1I WRITEBACK ACCESS:          0  HIT:          0  MISS:          0
cpu0_L1I TRANSLATION ACCESS:          0  HIT:          0  MISS:          0
cpu0_L1I PREFETCH  REQUESTED:          0  ISSUED:          0  USEFUL:          0  USELESS:          0
cpu0_L1I AVERAGE MISS LATENCY: 194.2 cycles
cpu0_STLB TOTAL     ACCESS:   10821684  HIT:    9710390  MISS:    1111294
cpu0_STLB LOAD      ACCESS:   10454617  HIT:    9350087  MISS:    1104530
cpu0_STLB RFO       ACCESS:     367067  HIT:     360303  MISS:       6764
cpu0_STLB PREFETCH  ACCESS:          0  HIT:          0  MISS:          0
cpu0_STLB WRITEBACK ACCESS:          0  HIT:          0  MISS:          0
cpu0_STLB TRANSLATION ACCESS:          0  HIT:          0  MISS:          0
cpu0_STLB PREFETCH  REQUESTED:          0  ISSUED:          0  USEFUL:          0  USELESS:          0
cpu0_STLB AVERAGE MISS LATENCY: 19.1719 cycles
cpu0_L1D TOTAL     ACCESS:   27614763  HIT:   14070578  MISS:   13544185
cpu0_L1D LOAD      ACCESS:   22268061  HIT:    9098069  MISS:   13169992
cpu0_L1D RFO       ACCESS:    4238993  HIT:    4033844  MISS:     205149
cpu0_L1D PREFETCH  ACCESS:          0  HIT:          0  MISS:          0
cpu0_L1D WRITEBACK ACCESS:          0  HIT:          0  MISS:          0
cpu0_L1D TRANSLATION ACCESS:    1107709  HIT:     938665  MISS:     169044
cpu0_L1D PREFETCH  REQUESTED:          0  ISSUED:          0  USEFUL:          0  USELESS:          0
cpu0_L1D AVERAGE MISS LATENCY: 154.829 cycles
cpu0_L2C TOTAL     ACCESS:   15653390  HIT:    6140188  MISS:    9513202
cpu0_L2C LOAD      ACCESS:   13169633  HIT:    3841647  MISS:    9327986
cpu0_L2C RFO       ACCESS:     205143  HIT:      71893  MISS:     133250
cpu0_L2C PREFETCH  ACCESS:          0  HIT:          0  MISS:          0
cpu0_L2C WRITEBACK ACCESS:    2109570  HIT:    2109218  MISS:        352
cpu0_L2C TRANSLATION ACCESS:     169044  HIT:     117430  MISS:      51614
cpu0_L2C PREFETCH  REQUESTED:          0  ISSUED:          0  USEFUL:          0  USELESS:          0
cpu0_L2C AVERAGE MISS LATENCY: 204.7 cycles
LLC TOTAL     ACCESS:   11019541  HIT:    4722077  MISS:    6297464
LLC LOAD      ACCESS:    9327984  HIT:    3675140  MISS:    5652844
LLC RFO       ACCESS:     133250  HIT:      87155  MISS:      46095
LLC PREFETCH  ACCESS:          0  HIT:          0  MISS:          0
LLC WRITEBACK ACCESS:    1506693  HIT:     913244  MISS:     593449
LLC TRANSLATION ACCESS:      51614  HIT:      46538  MISS:       5076
LLC PREFETCH  REQUESTED:          0  ISSUED:          0  USEFUL:          0  USELESS:          0
LLC AVERAGE MISS LATENCY: 277.506 cycles
Insertion Distribution: 
	LOAD 200280 103299 6039511 
	RFO 15023 20759 12931 
	PREF 0 0 0 
	WRITEBACK 0 0 617800 
	 41 240 6070 
Total Prefetch Downgrades: 0

DRAM Statistics
 CHANNEL 0
 RQ ROW_BUFFER_HIT:       9361  ROW_BUFFER_MISS:    5694301
 DBUS AVG_CONGESTED_CYCLE:    3.95348
 WQ ROW_BUFFER_HIT:      38055  ROW_BUFFER_MISS:     717593  FULL:          0


CPU 0 Branch Prediction Accuracy: 85.5988% MPKI: 40.2398 Average ROB Occupancy at Mispredict: 17.1973
Branch type MPKI
BRANCH_DIRECT_JUMP: 4e-05
BRANCH_INDIRECT: 0
BRANCH_CONDITIONAL: 40.2397
BRANCH_DIRECT_CALL: 0
BRANCH_INDIRECT_CALL: 0
BRANCH_RETURN: 0

