
*** ChampSim Multicore Out-of-Order Simulator ***

Warmup Instructions: 10000000
Simulation Instructions: 100000000
Number of CPUs: 1
Off-chip DRAM Size: 4 GiB Channels: 1 Width: 64-bit Data Rate: 3200 MT/s

VirtualMemory physical capacity: 8588881920 num_ppages: 2096895
VirtualMemory page size: 4096 log2_page_size: 12

CPU 0 runs /datasets/cs240c-wi22-a00-public/data/Assignment2/omnetpp_4B.trace.xz
CPU 0 Bimodal branch predictor
Basic BTB sets: 1024 ways: 8 indirect buffer size: 4096 RAS size: 64
Initialize SRRIP state
Heartbeat CPU 0 instructions: 10000002 cycles: 2526494 heartbeat IPC: 3.95806 cumulative IPC: 3.95806 (Simulation time: 0 hr 0 min 29 sec) 

Warmup complete CPU 0 instructions: 10000002 cycles: 2526494 (Simulation time: 0 hr 0 min 29 sec) 

Heartbeat CPU 0 instructions: 20000000 cycles: 9188757 heartbeat IPC: 1.50099 cumulative IPC: 1.50099 (Simulation time: 0 hr 1 min 9 sec) 
Heartbeat CPU 0 instructions: 30000001 cycles: 16005196 heartbeat IPC: 1.46704 cumulative IPC: 1.48382 (Simulation time: 0 hr 1 min 55 sec) 
Heartbeat CPU 0 instructions: 40000002 cycles: 22933310 heartbeat IPC: 1.44339 cumulative IPC: 1.4701 (Simulation time: 0 hr 2 min 40 sec) 
Heartbeat CPU 0 instructions: 50000000 cycles: 29861417 heartbeat IPC: 1.4434 cumulative IPC: 1.46333 (Simulation time: 0 hr 3 min 24 sec) 
Heartbeat CPU 0 instructions: 60000000 cycles: 36525408 heartbeat IPC: 1.5006 cumulative IPC: 1.47064 (Simulation time: 0 hr 4 min 8 sec) 
Heartbeat CPU 0 instructions: 70000000 cycles: 43215681 heartbeat IPC: 1.49471 cumulative IPC: 1.47459 (Simulation time: 0 hr 4 min 51 sec) 
Heartbeat CPU 0 instructions: 80000000 cycles: 49886074 heartbeat IPC: 1.49916 cumulative IPC: 1.47805 (Simulation time: 0 hr 5 min 34 sec) 
Heartbeat CPU 0 instructions: 90000000 cycles: 56864162 heartbeat IPC: 1.43306 cumulative IPC: 1.47228 (Simulation time: 0 hr 6 min 22 sec) 
Heartbeat CPU 0 instructions: 100000001 cycles: 63329945 heartbeat IPC: 1.5466 cumulative IPC: 1.48018 (Simulation time: 0 hr 7 min 2 sec) 
Heartbeat CPU 0 instructions: 110000002 cycles: 70039069 heartbeat IPC: 1.49051 cumulative IPC: 1.48121 (Simulation time: 0 hr 7 min 47 sec) 
Finished CPU 0 instructions: 100000000 cycles: 67512575 cumulative IPC: 1.48121 (Simulation time: 0 hr 7 min 47 sec) 

ChampSim completed all CPUs

Region of Interest Statistics

CPU 0 cumulative IPC: 1.48121 instructions: 100000000 cycles: 67512575
cpu0_DTLB TOTAL     ACCESS:   11695702  HIT:   10263821  MISS:    1431881
cpu0_DTLB LOAD      ACCESS:    9109343  HIT:    7679025  MISS:    1430318
cpu0_DTLB RFO       ACCESS:    2586359  HIT:    2584796  MISS:       1563
cpu0_DTLB PREFETCH  ACCESS:          0  HIT:          0  MISS:          0
cpu0_DTLB WRITEBACK ACCESS:          0  HIT:          0  MISS:          0
cpu0_DTLB TRANSLATION ACCESS:          0  HIT:          0  MISS:          0
cpu0_DTLB PREFETCH  REQUESTED:          0  ISSUED:          0  USEFUL:          0  USELESS:          0
cpu0_DTLB AVERAGE MISS LATENCY: 17.5758 cycles
cpu0_ITLB TOTAL     ACCESS:    7987586  HIT:    7963419  MISS:      24167
cpu0_ITLB LOAD      ACCESS:    7987586  HIT:    7963419  MISS:      24167
cpu0_ITLB RFO       ACCESS:          0  HIT:          0  MISS:          0
cpu0_ITLB PREFETCH  ACCESS:          0  HIT:          0  MISS:          0
cpu0_ITLB WRITEBACK ACCESS:          0  HIT:          0  MISS:          0
cpu0_ITLB TRANSLATION ACCESS:          0  HIT:          0  MISS:          0
cpu0_ITLB PREFETCH  REQUESTED:          0  ISSUED:          0  USEFUL:          0  USELESS:          0
cpu0_ITLB AVERAGE MISS LATENCY: 10.8487 cycles
cpu0_L1I TOTAL     ACCESS:    1939476  HIT:    1876616  MISS:      62860
cpu0_L1I LOAD      ACCESS:    1939476  HIT:    1876616  MISS:      62860
cpu0_L1I RFO       ACCESS:          0  HIT:          0  MISS:          0
cpu0_L1I PREFETCH  ACCESS:          0  HIT:          0  MISS:          0
cpu0_L1I WRITEBACK ACCESS:          0  HIT:          0  MISS:          0
cpu0_L1I TRANSLATION ACCESS:          0  HIT:          0  MISS:          0
cpu0_L1I PREFETCH  REQUESTED:          0  ISSUED:          0  USEFUL:          0  USELESS:          0
cpu0_L1I AVERAGE MISS LATENCY: 45.626 cycles
cpu0_STLB TOTAL     ACCESS:    1456048  HIT:      23499  MISS:    1432549
cpu0_STLB LOAD      ACCESS:    1454485  HIT:      22753  MISS:    1431732
cpu0_STLB RFO       ACCESS:       1563  HIT:        746  MISS:        817
cpu0_STLB PREFETCH  ACCESS:          0  HIT:          0  MISS:          0
cpu0_STLB WRITEBACK ACCESS:          0  HIT:          0  MISS:          0
cpu0_STLB TRANSLATION ACCESS:          0  HIT:          0  MISS:          0
cpu0_STLB PREFETCH  REQUESTED:          0  ISSUED:          0  USEFUL:          0  USELESS:          0
cpu0_STLB AVERAGE MISS LATENCY: 8.15816 cycles
cpu0_L1D TOTAL     ACCESS:   12565011  HIT:   10075107  MISS:    2489904
cpu0_L1D LOAD      ACCESS:    7289018  HIT:    4837818  MISS:    2451200
cpu0_L1D RFO       ACCESS:    4653847  HIT:    4616132  MISS:      37715
cpu0_L1D PREFETCH  ACCESS:          0  HIT:          0  MISS:          0
cpu0_L1D WRITEBACK ACCESS:          0  HIT:          0  MISS:          0
cpu0_L1D TRANSLATION ACCESS:     622146  HIT:     621157  MISS:        989
cpu0_L1D PREFETCH  REQUESTED:          0  ISSUED:          0  USEFUL:          0  USELESS:          0
cpu0_L1D AVERAGE MISS LATENCY: 66.0887 cycles
cpu0_L2C TOTAL     ACCESS:    2633716  HIT:     114323  MISS:    2519393
cpu0_L2C LOAD      ACCESS:    2514059  HIT:      32379  MISS:    2481680
cpu0_L2C RFO       ACCESS:      37715  HIT:        795  MISS:      36920
cpu0_L2C PREFETCH  ACCESS:          0  HIT:          0  MISS:          0
cpu0_L2C WRITEBACK ACCESS:      80953  HIT:      80953  MISS:          0
cpu0_L2C TRANSLATION ACCESS:        989  HIT:        196  MISS:        793
cpu0_L2C PREFETCH  REQUESTED:          0  ISSUED:          0  USEFUL:          0  USELESS:          0
cpu0_L2C AVERAGE MISS LATENCY: 54.6532 cycles
LLC TOTAL     ACCESS:    2598934  HIT:    2310678  MISS:     288256
LLC LOAD      ACCESS:    2481677  HIT:    2216300  MISS:     265377
LLC RFO       ACCESS:      36920  HIT:      20161  MISS:      16759
LLC PREFETCH  ACCESS:          0  HIT:          0  MISS:          0
LLC WRITEBACK ACCESS:      79544  HIT:      73512  MISS:       6032
LLC TRANSLATION ACCESS:        793  HIT:        705  MISS:         88
LLC PREFETCH  REQUESTED:          0  ISSUED:          0  USEFUL:          0  USELESS:          0
LLC AVERAGE MISS LATENCY: 294.046 cycles
Insertion Distribution: 
	LOAD 114370 146577 69046 
	RFO 3513 6154 9014 
	PREF 0 0 0 
	WRITEBACK 0 0 6494 
	 26 95 5 
Total Prefetch Downgrades: 0

DRAM Statistics
 CHANNEL 0
 RQ ROW_BUFFER_HIT:      23790  ROW_BUFFER_MISS:     256891
 DBUS AVG_CONGESTED_CYCLE:    3.94371
 WQ ROW_BUFFER_HIT:       5612  ROW_BUFFER_MISS:      42301  FULL:          0


CPU 0 Branch Prediction Accuracy: 97.4293% MPKI: 8.26178 Average ROB Occupancy at Mispredict: 57.0015
Branch type MPKI
BRANCH_DIRECT_JUMP: 0.00037
BRANCH_INDIRECT: 0.12485
BRANCH_CONDITIONAL: 8.10493
BRANCH_DIRECT_CALL: 0.00326
BRANCH_INDIRECT_CALL: 0.00558
BRANCH_RETURN: 0.02279

