
*** ChampSim Multicore Out-of-Order Simulator ***

Warmup Instructions: 10000000
Simulation Instructions: 100000000
Number of CPUs: 1
Off-chip DRAM Size: 4 GiB Channels: 1 Width: 64-bit Data Rate: 3200 MT/s

VirtualMemory physical capacity: 8588881920 num_ppages: 2096895
VirtualMemory page size: 4096 log2_page_size: 12

CPU 0 runs /datasets/cs240c-wi22-a00-public/data/Assignment2/wrf_1228B.trace.xz
CPU 0 Bimodal branch predictor
Basic BTB sets: 1024 ways: 8 indirect buffer size: 4096 RAS size: 64
Initialize SRRIP state
Heartbeat CPU 0 instructions: 10000001 cycles: 3904493 heartbeat IPC: 2.56115 cumulative IPC: 2.56115 (Simulation time: 0 hr 1 min 1 sec) 

Warmup complete CPU 0 instructions: 10000001 cycles: 3904493 (Simulation time: 0 hr 1 min 1 sec) 

Heartbeat CPU 0 instructions: 20000001 cycles: 12126920 heartbeat IPC: 1.21619 cumulative IPC: 1.21619 (Simulation time: 0 hr 2 min 19 sec) 
Heartbeat CPU 0 instructions: 30000003 cycles: 23346119 heartbeat IPC: 0.891329 cumulative IPC: 1.02872 (Simulation time: 0 hr 3 min 57 sec) 
Heartbeat CPU 0 instructions: 40000000 cycles: 36523841 heartbeat IPC: 0.758856 cumulative IPC: 0.9197 (Simulation time: 0 hr 5 min 50 sec) 
Heartbeat CPU 0 instructions: 50000001 cycles: 44640074 heartbeat IPC: 1.2321 cumulative IPC: 0.981943 (Simulation time: 0 hr 7 min 7 sec) 
Heartbeat CPU 0 instructions: 60000003 cycles: 54999927 heartbeat IPC: 0.965265 cumulative IPC: 0.978561 (Simulation time: 0 hr 8 min 38 sec) 
Heartbeat CPU 0 instructions: 70000001 cycles: 66686770 heartbeat IPC: 0.855663 cumulative IPC: 0.955684 (Simulation time: 0 hr 10 min 5 sec) 
Heartbeat CPU 0 instructions: 80000004 cycles: 76396603 heartbeat IPC: 1.02988 cumulative IPC: 0.965622 (Simulation time: 0 hr 11 min 11 sec) 
Heartbeat CPU 0 instructions: 90000001 cycles: 86081598 heartbeat IPC: 1.03252 cumulative IPC: 0.973507 (Simulation time: 0 hr 12 min 18 sec) 
Heartbeat CPU 0 instructions: 100000002 cycles: 95759938 heartbeat IPC: 1.03324 cumulative IPC: 0.9798 (Simulation time: 0 hr 13 min 25 sec) 
Heartbeat CPU 0 instructions: 110000000 cycles: 105430101 heartbeat IPC: 1.03411 cumulative IPC: 0.984973 (Simulation time: 0 hr 14 min 32 sec) 
Finished CPU 0 instructions: 100000004 cycles: 101525609 cumulative IPC: 0.984973 (Simulation time: 0 hr 14 min 32 sec) 

ChampSim completed all CPUs

Region of Interest Statistics

CPU 0 cumulative IPC: 0.984973 instructions: 100000004 cycles: 101525609
cpu0_DTLB TOTAL     ACCESS:   19662447  HIT:   19566209  MISS:      96238
cpu0_DTLB LOAD      ACCESS:   17651134  HIT:   17569204  MISS:      81930
cpu0_DTLB RFO       ACCESS:    2011313  HIT:    1997005  MISS:      14308
cpu0_DTLB PREFETCH  ACCESS:          0  HIT:          0  MISS:          0
cpu0_DTLB WRITEBACK ACCESS:          0  HIT:          0  MISS:          0
cpu0_DTLB TRANSLATION ACCESS:          0  HIT:          0  MISS:          0
cpu0_DTLB PREFETCH  REQUESTED:          0  ISSUED:          0  USEFUL:          0  USELESS:          0
cpu0_DTLB AVERAGE MISS LATENCY: 20.0145 cycles
cpu0_ITLB TOTAL     ACCESS:    4191389  HIT:    4191377  MISS:         12
cpu0_ITLB LOAD      ACCESS:    4191389  HIT:    4191377  MISS:         12
cpu0_ITLB RFO       ACCESS:          0  HIT:          0  MISS:          0
cpu0_ITLB PREFETCH  ACCESS:          0  HIT:          0  MISS:          0
cpu0_ITLB WRITEBACK ACCESS:          0  HIT:          0  MISS:          0
cpu0_ITLB TRANSLATION ACCESS:          0  HIT:          0  MISS:          0
cpu0_ITLB PREFETCH  REQUESTED:          0  ISSUED:          0  USEFUL:          0  USELESS:          0
cpu0_ITLB AVERAGE MISS LATENCY: 220.583 cycles
cpu0_L1I TOTAL     ACCESS:    6673027  HIT:    6672279  MISS:        748
cpu0_L1I LOAD      ACCESS:    6673027  HIT:    6672279  MISS:        748
cpu0_L1I RFO       ACCESS:          0  HIT:          0  MISS:          0
cpu0_L1I PREFETCH  ACCESS:          0  HIT:          0  MISS:          0
cpu0_L1I WRITEBACK ACCESS:          0  HIT:          0  MISS:          0
cpu0_L1I TRANSLATION ACCESS:          0  HIT:          0  MISS:          0
cpu0_L1I PREFETCH  REQUESTED:          0  ISSUED:          0  USEFUL:          0  USELESS:          0
cpu0_L1I AVERAGE MISS LATENCY: 322.785 cycles
cpu0_STLB TOTAL     ACCESS:      96250  HIT:      86696  MISS:       9554
cpu0_STLB LOAD      ACCESS:      81942  HIT:      75034  MISS:       6908
cpu0_STLB RFO       ACCESS:      14308  HIT:      11662  MISS:       2646
cpu0_STLB PREFETCH  ACCESS:          0  HIT:          0  MISS:          0
cpu0_STLB WRITEBACK ACCESS:          0  HIT:          0  MISS:          0
cpu0_STLB TRANSLATION ACCESS:          0  HIT:          0  MISS:          0
cpu0_STLB PREFETCH  REQUESTED:          0  ISSUED:          0  USEFUL:          0  USELESS:          0
cpu0_STLB AVERAGE MISS LATENCY: 111.196 cycles
cpu0_L1D TOTAL     ACCESS:   18914305  HIT:   17555892  MISS:    1358413
cpu0_L1D LOAD      ACCESS:   14871905  HIT:   13772835  MISS:    1099070
cpu0_L1D RFO       ACCESS:    4032855  HIT:    3774300  MISS:     258555
cpu0_L1D PREFETCH  ACCESS:          0  HIT:          0  MISS:          0
cpu0_L1D WRITEBACK ACCESS:          0  HIT:          0  MISS:          0
cpu0_L1D TRANSLATION ACCESS:       9545  HIT:       8757  MISS:        788
cpu0_L1D PREFETCH  REQUESTED:          0  ISSUED:          0  USEFUL:          0  USELESS:          0
cpu0_L1D AVERAGE MISS LATENCY: 211.451 cycles
cpu0_L2C TOTAL     ACCESS:    1836372  HIT:     802945  MISS:    1033427
cpu0_L2C LOAD      ACCESS:    1099788  HIT:     287165  MISS:     812623
cpu0_L2C RFO       ACCESS:     258551  HIT:      39534  MISS:     219017
cpu0_L2C PREFETCH  ACCESS:          0  HIT:          0  MISS:          0
cpu0_L2C WRITEBACK ACCESS:     477245  HIT:     475569  MISS:       1676
cpu0_L2C TRANSLATION ACCESS:        788  HIT:        677  MISS:        111
cpu0_L2C PREFETCH  REQUESTED:          0  ISSUED:          0  USEFUL:          0  USELESS:          0
cpu0_L2C AVERAGE MISS LATENCY: 263.691 cycles
LLC TOTAL     ACCESS:    1463797  HIT:     463250  MISS:    1000547
LLC LOAD      ACCESS:     812623  HIT:     185970  MISS:     626653
LLC RFO       ACCESS:     219017  HIT:      31864  MISS:     187153
LLC PREFETCH  ACCESS:          0  HIT:          0  MISS:          0
LLC WRITEBACK ACCESS:     432046  HIT:     245364  MISS:     186682
LLC TRANSLATION ACCESS:        111  HIT:         52  MISS:         59
LLC PREFETCH  REQUESTED:          0  ISSUED:          0  USEFUL:          0  USELESS:          0
LLC AVERAGE MISS LATENCY: 250.699 cycles
Insertion Distribution: 
	LOAD 34954 138773 621316 
	RFO 60786 60457 141016 
	PREF 0 0 0 
	WRITEBACK 0 0 245300 
	 3 59 24 
Total Prefetch Downgrades: 0

DRAM Statistics
 CHANNEL 0
 RQ ROW_BUFFER_HIT:     106441  ROW_BUFFER_MISS:     706775
 DBUS AVG_CONGESTED_CYCLE:    3.92318
 WQ ROW_BUFFER_HIT:      26966  ROW_BUFFER_MISS:     268102  FULL:      11375


CPU 0 Branch Prediction Accuracy: 97.4481% MPKI: 2.04611 Average ROB Occupancy at Mispredict: 260.471
Branch type MPKI
BRANCH_DIRECT_JUMP: 0.00028
BRANCH_INDIRECT: 0
BRANCH_CONDITIONAL: 2.0456
BRANCH_DIRECT_CALL: 0.00011
BRANCH_INDIRECT_CALL: 0
BRANCH_RETURN: 0.00012

