
*** ChampSim Multicore Out-of-Order Simulator ***

Warmup Instructions: 10000000
Simulation Instructions: 100000000
Number of CPUs: 1
Off-chip DRAM Size: 4 GiB Channels: 1 Width: 64-bit Data Rate: 3200 MT/s

VirtualMemory physical capacity: 8588881920 num_ppages: 2096895
VirtualMemory page size: 4096 log2_page_size: 12

CPU 0 runs /datasets/cs240c-wi22-a00-public/data/Assignment2/xalancbmk_748B.trace.xz
CPU 0 Bimodal branch predictor
Basic BTB sets: 1024 ways: 8 indirect buffer size: 4096 RAS size: 64
Initialize SRRIP state
Heartbeat CPU 0 instructions: 10000002 cycles: 2655103 heartbeat IPC: 3.76633 cumulative IPC: 3.76633 (Simulation time: 0 hr 0 min 39 sec) 

Warmup complete CPU 0 instructions: 10000002 cycles: 2655103 (Simulation time: 0 hr 0 min 39 sec) 

Heartbeat CPU 0 instructions: 20000001 cycles: 11802927 heartbeat IPC: 1.09316 cumulative IPC: 1.09316 (Simulation time: 0 hr 1 min 28 sec) 
Heartbeat CPU 0 instructions: 30000002 cycles: 20687884 heartbeat IPC: 1.1255 cumulative IPC: 1.10909 (Simulation time: 0 hr 2 min 16 sec) 
Heartbeat CPU 0 instructions: 40000002 cycles: 30007780 heartbeat IPC: 1.07297 cumulative IPC: 1.09678 (Simulation time: 0 hr 3 min 6 sec) 
Heartbeat CPU 0 instructions: 50000001 cycles: 38513292 heartbeat IPC: 1.17571 cumulative IPC: 1.11551 (Simulation time: 0 hr 3 min 58 sec) 
Heartbeat CPU 0 instructions: 60000003 cycles: 45642948 heartbeat IPC: 1.40259 cumulative IPC: 1.16312 (Simulation time: 0 hr 4 min 52 sec) 
Heartbeat CPU 0 instructions: 70000000 cycles: 51651641 heartbeat IPC: 1.66425 cumulative IPC: 1.22458 (Simulation time: 0 hr 5 min 47 sec) 
Heartbeat CPU 0 instructions: 80000003 cycles: 62270723 heartbeat IPC: 0.941701 cumulative IPC: 1.17419 (Simulation time: 0 hr 6 min 39 sec) 
Heartbeat CPU 0 instructions: 90000003 cycles: 70906653 heartbeat IPC: 1.15795 cumulative IPC: 1.17213 (Simulation time: 0 hr 7 min 30 sec) 
Heartbeat CPU 0 instructions: 100000003 cycles: 78885009 heartbeat IPC: 1.25339 cumulative IPC: 1.18064 (Simulation time: 0 hr 8 min 22 sec) 
Heartbeat CPU 0 instructions: 110000001 cycles: 86142318 heartbeat IPC: 1.37792 cumulative IPC: 1.19779 (Simulation time: 0 hr 9 min 15 sec) 
Finished CPU 0 instructions: 100000004 cycles: 83487216 cumulative IPC: 1.19779 (Simulation time: 0 hr 9 min 15 sec) 

ChampSim completed all CPUs

Region of Interest Statistics

CPU 0 cumulative IPC: 1.19779 instructions: 100000004 cycles: 83487216
cpu0_DTLB TOTAL     ACCESS:   20938063  HIT:   19922826  MISS:    1015237
cpu0_DTLB LOAD      ACCESS:   15325282  HIT:   14390474  MISS:     934808
cpu0_DTLB RFO       ACCESS:    5612781  HIT:    5532352  MISS:      80429
cpu0_DTLB PREFETCH  ACCESS:          0  HIT:          0  MISS:          0
cpu0_DTLB WRITEBACK ACCESS:          0  HIT:          0  MISS:          0
cpu0_DTLB TRANSLATION ACCESS:          0  HIT:          0  MISS:          0
cpu0_DTLB PREFETCH  REQUESTED:          0  ISSUED:          0  USEFUL:          0  USELESS:          0
cpu0_DTLB AVERAGE MISS LATENCY: 12.6604 cycles
cpu0_ITLB TOTAL     ACCESS:    8534299  HIT:    8419264  MISS:     115035
cpu0_ITLB LOAD      ACCESS:    8534299  HIT:    8419264  MISS:     115035
cpu0_ITLB RFO       ACCESS:          0  HIT:          0  MISS:          0
cpu0_ITLB PREFETCH  ACCESS:          0  HIT:          0  MISS:          0
cpu0_ITLB WRITEBACK ACCESS:          0  HIT:          0  MISS:          0
cpu0_ITLB TRANSLATION ACCESS:          0  HIT:          0  MISS:          0
cpu0_ITLB PREFETCH  REQUESTED:          0  ISSUED:          0  USEFUL:          0  USELESS:          0
cpu0_ITLB AVERAGE MISS LATENCY: 9.08 cycles
cpu0_L1I TOTAL     ACCESS:    5572306  HIT:    5474296  MISS:      98010
cpu0_L1I LOAD      ACCESS:    5572306  HIT:    5474296  MISS:      98010
cpu0_L1I RFO       ACCESS:          0  HIT:          0  MISS:          0
cpu0_L1I PREFETCH  ACCESS:          0  HIT:          0  MISS:          0
cpu0_L1I WRITEBACK ACCESS:          0  HIT:          0  MISS:          0
cpu0_L1I TRANSLATION ACCESS:          0  HIT:          0  MISS:          0
cpu0_L1I PREFETCH  REQUESTED:          0  ISSUED:          0  USEFUL:          0  USELESS:          0
cpu0_L1I AVERAGE MISS LATENCY: 15.4657 cycles
cpu0_STLB TOTAL     ACCESS:    1130272  HIT:    1056260  MISS:      74012
cpu0_STLB LOAD      ACCESS:    1049843  HIT:    1003753  MISS:      46090
cpu0_STLB RFO       ACCESS:      80429  HIT:      52507  MISS:      27922
cpu0_STLB PREFETCH  ACCESS:          0  HIT:          0  MISS:          0
cpu0_STLB WRITEBACK ACCESS:          0  HIT:          0  MISS:          0
cpu0_STLB TRANSLATION ACCESS:          0  HIT:          0  MISS:          0
cpu0_STLB PREFETCH  REQUESTED:          0  ISSUED:          0  USEFUL:          0  USELESS:          0
cpu0_STLB AVERAGE MISS LATENCY: 50.1785 cycles
cpu0_L1D TOTAL     ACCESS:   22865906  HIT:   21391316  MISS:    1474590
cpu0_L1D LOAD      ACCESS:   13615426  HIT:   12402033  MISS:    1213393
cpu0_L1D RFO       ACCESS:    9183675  HIT:    8937457  MISS:     246218
cpu0_L1D PREFETCH  ACCESS:          0  HIT:          0  MISS:          0
cpu0_L1D WRITEBACK ACCESS:          0  HIT:          0  MISS:          0
cpu0_L1D TRANSLATION ACCESS:      66805  HIT:      51826  MISS:      14979
cpu0_L1D PREFETCH  REQUESTED:          0  ISSUED:          0  USEFUL:          0  USELESS:          0
cpu0_L1D AVERAGE MISS LATENCY: 46.305 cycles
cpu0_L2C TOTAL     ACCESS:    1931838  HIT:    1588056  MISS:     343782
cpu0_L2C LOAD      ACCESS:    1311357  HIT:    1191277  MISS:     120080
cpu0_L2C RFO       ACCESS:     246206  HIT:      23091  MISS:     223115
cpu0_L2C PREFETCH  ACCESS:          0  HIT:          0  MISS:          0
cpu0_L2C WRITEBACK ACCESS:     359296  HIT:     358809  MISS:        487
cpu0_L2C TRANSLATION ACCESS:      14979  HIT:      14879  MISS:        100
cpu0_L2C PREFETCH  REQUESTED:          0  ISSUED:          0  USEFUL:          0  USELESS:          0
cpu0_L2C AVERAGE MISS LATENCY: 152.127 cycles
LLC TOTAL     ACCESS:     632519  HIT:     236694  MISS:     395825
LLC LOAD      ACCESS:     120080  HIT:      67981  MISS:      52099
LLC RFO       ACCESS:     223115  HIT:      29945  MISS:     193170
LLC PREFETCH  ACCESS:          0  HIT:          0  MISS:          0
LLC WRITEBACK ACCESS:     289224  HIT:     138713  MISS:     150511
LLC TRANSLATION ACCESS:        100  HIT:         55  MISS:         45
LLC PREFETCH  REQUESTED:          0  ISSUED:          0  USEFUL:          0  USELESS:          0
LLC AVERAGE MISS LATENCY: 113.912 cycles
Insertion Distribution: 
	LOAD 17446 35905 11528 
	RFO 12479 35560 158019 
	PREF 0 0 0 
	WRITEBACK 0 0 150512 
	 20 61 1 
Total Prefetch Downgrades: 0

DRAM Statistics
 CHANNEL 0
 RQ ROW_BUFFER_HIT:      99223  ROW_BUFFER_MISS:     146083
 DBUS AVG_CONGESTED_CYCLE:    3.94612
 WQ ROW_BUFFER_HIT:      18239  ROW_BUFFER_MISS:     194031  FULL:          0


CPU 0 Branch Prediction Accuracy: 96.4988% MPKI: 10.3974 Average ROB Occupancy at Mispredict: 40.1978
Branch type MPKI
BRANCH_DIRECT_JUMP: 0.0002
BRANCH_INDIRECT: 0.35495
BRANCH_CONDITIONAL: 7.96079
BRANCH_DIRECT_CALL: 9e-05
BRANCH_INDIRECT_CALL: 0.45393
BRANCH_RETURN: 1.62746

