
*** ChampSim Multicore Out-of-Order Simulator ***

Warmup Instructions: 10000000
Simulation Instructions: 100000000
Number of CPUs: 1
Off-chip DRAM Size: 4 GiB Channels: 1 Width: 64-bit Data Rate: 3200 MT/s

VirtualMemory physical capacity: 8588881920 num_ppages: 2096895
VirtualMemory page size: 4096 log2_page_size: 12

CPU 0 runs /Users/raghavprasad/brandon/Homework2/traces/bzip2_259B.trace.xz
CPU 0 Bimodal branch predictor
Basic BTB sets: 1024 ways: 8 indirect buffer size: 4096 RAS size: 64
Initialize Hawkeye state
Heartbeat CPU 0 instructions: 10000002 cycles: 2535454 heartbeat IPC: 3.94407 cumulative IPC: 3.94407 (Simulation time: 0 hr 0 min 39 sec) 

Warmup complete CPU 0 instructions: 10000002 cycles: 2535454 (Simulation time: 0 hr 0 min 39 sec) 

Heartbeat CPU 0 instructions: 20000003 cycles: 8997994 heartbeat IPC: 1.54738 cumulative IPC: 1.54738 (Simulation time: 0 hr 2 min 15 sec) 
Heartbeat CPU 0 instructions: 30000002 cycles: 14583885 heartbeat IPC: 1.79022 cumulative IPC: 1.65997 (Simulation time: 0 hr 3 min 38 sec) 
Heartbeat CPU 0 instructions: 40000003 cycles: 21480692 heartbeat IPC: 1.44995 cumulative IPC: 1.58351 (Simulation time: 0 hr 4 min 42 sec) 
Heartbeat CPU 0 instructions: 50000003 cycles: 29685150 heartbeat IPC: 1.21885 cumulative IPC: 1.47331 (Simulation time: 0 hr 5 min 15 sec) 
Heartbeat CPU 0 instructions: 60000001 cycles: 37548130 heartbeat IPC: 1.27178 cumulative IPC: 1.42805 (Simulation time: 0 hr 5 min 48 sec) 
Heartbeat CPU 0 instructions: 70000003 cycles: 43958416 heartbeat IPC: 1.55999 cumulative IPC: 1.44847 (Simulation time: 0 hr 7 min 18 sec) 
Heartbeat CPU 0 instructions: 80000004 cycles: 50932632 heartbeat IPC: 1.43385 cumulative IPC: 1.44637 (Simulation time: 0 hr 8 min 49 sec) 
Heartbeat CPU 0 instructions: 90000001 cycles: 57241972 heartbeat IPC: 1.58495 cumulative IPC: 1.46235 (Simulation time: 0 hr 9 min 55 sec) 
Heartbeat CPU 0 instructions: 100000000 cycles: 65646956 heartbeat IPC: 1.18977 cumulative IPC: 1.42605 (Simulation time: 0 hr 10 min 26 sec) 
Heartbeat CPU 0 instructions: 110000000 cycles: 73644028 heartbeat IPC: 1.25046 cumulative IPC: 1.4063 (Simulation time: 0 hr 10 min 56 sec) 
Finished CPU 0 instructions: 100000003 cycles: 71108579 cumulative IPC: 1.4063 (Simulation time: 0 hr 10 min 56 sec) 

ChampSim completed all CPUs

Region of Interest Statistics

CPU 0 cumulative IPC: 1.4063 instructions: 100000003 cycles: 71108579
cpu0_DTLB TOTAL     ACCESS:   18627871  HIT:   17967295  MISS:     660576
cpu0_DTLB LOAD      ACCESS:    9570704  HIT:    8914040  MISS:     656664
cpu0_DTLB RFO       ACCESS:    9057167  HIT:    9053255  MISS:       3912
cpu0_DTLB PREFETCH  ACCESS:          0  HIT:          0  MISS:          0
cpu0_DTLB WRITEBACK ACCESS:          0  HIT:          0  MISS:          0
cpu0_DTLB TRANSLATION ACCESS:          0  HIT:          0  MISS:          0
cpu0_DTLB PREFETCH  REQUESTED:          0  ISSUED:          0  USEFUL:          0  USELESS:          0
cpu0_DTLB AVERAGE MISS LATENCY: 9.26276 cycles
cpu0_ITLB TOTAL     ACCESS:    6777008  HIT:    6777005  MISS:          3
cpu0_ITLB LOAD      ACCESS:    6777008  HIT:    6777005  MISS:          3
cpu0_ITLB RFO       ACCESS:          0  HIT:          0  MISS:          0
cpu0_ITLB PREFETCH  ACCESS:          0  HIT:          0  MISS:          0
cpu0_ITLB WRITEBACK ACCESS:          0  HIT:          0  MISS:          0
cpu0_ITLB TRANSLATION ACCESS:          0  HIT:          0  MISS:          0
cpu0_ITLB PREFETCH  REQUESTED:          0  ISSUED:          0  USEFUL:          0  USELESS:          0
cpu0_ITLB AVERAGE MISS LATENCY: 242 cycles
cpu0_L1I TOTAL     ACCESS:      58690  HIT:      58551  MISS:        139
cpu0_L1I LOAD      ACCESS:      58690  HIT:      58551  MISS:        139
cpu0_L1I RFO       ACCESS:          0  HIT:          0  MISS:          0
cpu0_L1I PREFETCH  ACCESS:          0  HIT:          0  MISS:          0
cpu0_L1I WRITEBACK ACCESS:          0  HIT:          0  MISS:          0
cpu0_L1I TRANSLATION ACCESS:          0  HIT:          0  MISS:          0
cpu0_L1I PREFETCH  REQUESTED:          0  ISSUED:          0  USEFUL:          0  USELESS:          0
cpu0_L1I AVERAGE MISS LATENCY: 211.173 cycles
cpu0_STLB TOTAL     ACCESS:     660579  HIT:     659759  MISS:        820
cpu0_STLB LOAD      ACCESS:     656667  HIT:     656395  MISS:        272
cpu0_STLB RFO       ACCESS:       3912  HIT:       3364  MISS:        548
cpu0_STLB PREFETCH  ACCESS:          0  HIT:          0  MISS:          0
cpu0_STLB WRITEBACK ACCESS:          0  HIT:          0  MISS:          0
cpu0_STLB TRANSLATION ACCESS:          0  HIT:          0  MISS:          0
cpu0_STLB PREFETCH  REQUESTED:          0  ISSUED:          0  USEFUL:          0  USELESS:          0
cpu0_STLB AVERAGE MISS LATENCY: 212.452 cycles
cpu0_L1D TOTAL     ACCESS:   20325768  HIT:   19320206  MISS:    1005562
cpu0_L1D LOAD      ACCESS:   10370387  HIT:    9484016  MISS:     886371
cpu0_L1D RFO       ACCESS:    9954565  HIT:    9835693  MISS:     118872
cpu0_L1D PREFETCH  ACCESS:          0  HIT:          0  MISS:          0
cpu0_L1D WRITEBACK ACCESS:          0  HIT:          0  MISS:          0
cpu0_L1D TRANSLATION ACCESS:        816  HIT:        497  MISS:        319
cpu0_L1D PREFETCH  REQUESTED:          0  ISSUED:          0  USEFUL:          0  USELESS:          0
cpu0_L1D AVERAGE MISS LATENCY: 88.9398 cycles
cpu0_L2C TOTAL     ACCESS:    1222696  HIT:     525790  MISS:     696906
cpu0_L2C LOAD      ACCESS:     886508  HIT:     289608  MISS:     596900
cpu0_L2C RFO       ACCESS:     118872  HIT:      18920  MISS:      99952
cpu0_L2C PREFETCH  ACCESS:          0  HIT:          0  MISS:          0
cpu0_L2C WRITEBACK ACCESS:     216997  HIT:     216959  MISS:         38
cpu0_L2C TRANSLATION ACCESS:        319  HIT:        303  MISS:         16
cpu0_L2C PREFETCH  REQUESTED:          0  ISSUED:          0  USEFUL:          0  USELESS:          0
cpu0_L2C AVERAGE MISS LATENCY: 112.494 cycles
LLC TOTAL     ACCESS:     885923  HIT:     586484  MISS:     299439
LLC LOAD      ACCESS:     596900  HIT:     398148  MISS:     198752
LLC RFO       ACCESS:      99949  HIT:      49079  MISS:      50870
LLC PREFETCH  ACCESS:          0  HIT:          0  MISS:          0
LLC WRITEBACK ACCESS:     189058  HIT:     139253  MISS:      49805
LLC TRANSLATION ACCESS:         16  HIT:          4  MISS:         12
LLC PREFETCH  REQUESTED:          0  ISSUED:          0  USEFUL:          0  USELESS:          0
LLC AVERAGE MISS LATENCY: 212.941 cycles
OPTgen accesses: 11172
OPTgen hits: 7790
OPTgen hit rate: 69.7279



DRAM Statistics
 CHANNEL 0
 RQ ROW_BUFFER_HIT:      27948  ROW_BUFFER_MISS:     221480
 DBUS AVG_CONGESTED_CYCLE:    3.95861
 WQ ROW_BUFFER_HIT:      15942  ROW_BUFFER_MISS:     123519  FULL:          0


CPU 0 Branch Prediction Accuracy: 93.3658% MPKI: 11.2167 Average ROB Occupancy at Mispredict: 31.7257
Branch type MPKI
BRANCH_DIRECT_JUMP: 0.0006
BRANCH_INDIRECT: 0.01713
BRANCH_CONDITIONAL: 11.1989
BRANCH_DIRECT_CALL: 5e-05
BRANCH_INDIRECT_CALL: 0
BRANCH_RETURN: 6e-05

