
*** ChampSim Multicore Out-of-Order Simulator ***

Warmup Instructions: 10000000
Simulation Instructions: 100000000
Number of CPUs: 1
Off-chip DRAM Size: 4 GiB Channels: 1 Width: 64-bit Data Rate: 3200 MT/s

VirtualMemory physical capacity: 8588881920 num_ppages: 2096895
VirtualMemory page size: 4096 log2_page_size: 12

CPU 0 runs /Users/raghavprasad/brandon/Homework2/traces/cactusADM_1039B.trace.xz
CPU 0 Bimodal branch predictor
Basic BTB sets: 1024 ways: 8 indirect buffer size: 4096 RAS size: 64
Initialize Hawkeye state
Heartbeat CPU 0 instructions: 10000004 cycles: 3647108 heartbeat IPC: 2.7419 cumulative IPC: 2.7419 (Simulation time: 0 hr 1 min 22 sec) 

Warmup complete CPU 0 instructions: 10000004 cycles: 3647108 (Simulation time: 0 hr 1 min 22 sec) 

Heartbeat CPU 0 instructions: 20000004 cycles: 13644981 heartbeat IPC: 1.00021 cumulative IPC: 1.00021 (Simulation time: 0 hr 3 min 46 sec) 
Heartbeat CPU 0 instructions: 30000000 cycles: 23333547 heartbeat IPC: 1.03214 cumulative IPC: 1.01593 (Simulation time: 0 hr 6 min 18 sec) 
Heartbeat CPU 0 instructions: 40000000 cycles: 32371542 heartbeat IPC: 1.10644 cumulative IPC: 1.04441 (Simulation time: 0 hr 8 min 33 sec) 
Heartbeat CPU 0 instructions: 50000004 cycles: 41179604 heartbeat IPC: 1.13532 cumulative IPC: 1.06574 (Simulation time: 0 hr 10 min 49 sec) 
Heartbeat CPU 0 instructions: 60000002 cycles: 47764018 heartbeat IPC: 1.51874 cumulative IPC: 1.13335 (Simulation time: 0 hr 12 min 49 sec) 
Heartbeat CPU 0 instructions: 70000003 cycles: 56542382 heartbeat IPC: 1.13916 cumulative IPC: 1.13432 (Simulation time: 0 hr 15 min 8 sec) 
Heartbeat CPU 0 instructions: 80000004 cycles: 65337256 heartbeat IPC: 1.13703 cumulative IPC: 1.1347 (Simulation time: 0 hr 17 min 27 sec) 
Heartbeat CPU 0 instructions: 90000004 cycles: 74077749 heartbeat IPC: 1.1441 cumulative IPC: 1.13587 (Simulation time: 0 hr 19 min 46 sec) 
Heartbeat CPU 0 instructions: 100000000 cycles: 80654694 heartbeat IPC: 1.52046 cumulative IPC: 1.16872 (Simulation time: 0 hr 21 min 49 sec) 
Heartbeat CPU 0 instructions: 110000001 cycles: 89421152 heartbeat IPC: 1.14071 cumulative IPC: 1.16585 (Simulation time: 0 hr 24 min 14 sec) 
Finished CPU 0 instructions: 100000002 cycles: 85774045 cumulative IPC: 1.16585 (Simulation time: 0 hr 24 min 14 sec) 

ChampSim completed all CPUs

Region of Interest Statistics

CPU 0 cumulative IPC: 1.16585 instructions: 100000002 cycles: 85774045
cpu0_DTLB TOTAL     ACCESS:   23021372  HIT:   20971803  MISS:    2049569
cpu0_DTLB LOAD      ACCESS:   19102694  HIT:   17669100  MISS:    1433594
cpu0_DTLB RFO       ACCESS:    3918678  HIT:    3302703  MISS:     615975
cpu0_DTLB PREFETCH  ACCESS:          0  HIT:          0  MISS:          0
cpu0_DTLB WRITEBACK ACCESS:          0  HIT:          0  MISS:          0
cpu0_DTLB TRANSLATION ACCESS:          0  HIT:          0  MISS:          0
cpu0_DTLB PREFETCH  REQUESTED:          0  ISSUED:          0  USEFUL:          0  USELESS:          0
cpu0_DTLB AVERAGE MISS LATENCY: 15.8189 cycles
cpu0_ITLB TOTAL     ACCESS:    1451285  HIT:    1451285  MISS:          0
cpu0_ITLB LOAD      ACCESS:    1451285  HIT:    1451285  MISS:          0
cpu0_ITLB RFO       ACCESS:          0  HIT:          0  MISS:          0
cpu0_ITLB PREFETCH  ACCESS:          0  HIT:          0  MISS:          0
cpu0_ITLB WRITEBACK ACCESS:          0  HIT:          0  MISS:          0
cpu0_ITLB TRANSLATION ACCESS:          0  HIT:          0  MISS:          0
cpu0_ITLB PREFETCH  REQUESTED:          0  ISSUED:          0  USEFUL:          0  USELESS:          0
cpu0_ITLB AVERAGE MISS LATENCY: nan cycles
cpu0_L1I TOTAL     ACCESS:    8131235  HIT:    8131232  MISS:          3
cpu0_L1I LOAD      ACCESS:    8131235  HIT:    8131232  MISS:          3
cpu0_L1I RFO       ACCESS:          0  HIT:          0  MISS:          0
cpu0_L1I PREFETCH  ACCESS:          0  HIT:          0  MISS:          0
cpu0_L1I WRITEBACK ACCESS:          0  HIT:          0  MISS:          0
cpu0_L1I TRANSLATION ACCESS:          0  HIT:          0  MISS:          0
cpu0_L1I PREFETCH  REQUESTED:          0  ISSUED:          0  USEFUL:          0  USELESS:          0
cpu0_L1I AVERAGE MISS LATENCY: 583.667 cycles
cpu0_STLB TOTAL     ACCESS:    2049569  HIT:    1126245  MISS:     923324
cpu0_STLB LOAD      ACCESS:    1433594  HIT:     833754  MISS:     599840
cpu0_STLB RFO       ACCESS:     615975  HIT:     292491  MISS:     323484
cpu0_STLB PREFETCH  ACCESS:          0  HIT:          0  MISS:          0
cpu0_STLB WRITEBACK ACCESS:          0  HIT:          0  MISS:          0
cpu0_STLB TRANSLATION ACCESS:          0  HIT:          0  MISS:          0
cpu0_STLB PREFETCH  REQUESTED:          0  ISSUED:          0  USEFUL:          0  USELESS:          0
cpu0_STLB AVERAGE MISS LATENCY: 14.9813 cycles
cpu0_L1D TOTAL     ACCESS:   37666036  HIT:   36342315  MISS:    1323721
cpu0_L1D LOAD      ACCESS:   25762048  HIT:   24709665  MISS:    1052383
cpu0_L1D RFO       ACCESS:   10981540  HIT:   10716167  MISS:     265373
cpu0_L1D PREFETCH  ACCESS:          0  HIT:          0  MISS:          0
cpu0_L1D WRITEBACK ACCESS:          0  HIT:          0  MISS:          0
cpu0_L1D TRANSLATION ACCESS:     922448  HIT:     916483  MISS:       5965
cpu0_L1D PREFETCH  REQUESTED:          0  ISSUED:          0  USEFUL:          0  USELESS:          0
cpu0_L1D AVERAGE MISS LATENCY: 289.67 cycles
cpu0_L2C TOTAL     ACCESS:    1592999  HIT:     694220  MISS:     898779
cpu0_L2C LOAD      ACCESS:    1052386  HIT:     419476  MISS:     632910
cpu0_L2C RFO       ACCESS:     265373  HIT:          2  MISS:     265371
cpu0_L2C PREFETCH  ACCESS:          0  HIT:          0  MISS:          0
cpu0_L2C WRITEBACK ACCESS:     269275  HIT:     269062  MISS:        213
cpu0_L2C TRANSLATION ACCESS:       5965  HIT:       5680  MISS:        285
cpu0_L2C PREFETCH  REQUESTED:          0  ISSUED:          0  USEFUL:          0  USELESS:          0
cpu0_L2C AVERAGE MISS LATENCY: 410.406 cycles
LLC TOTAL     ACCESS:    1165762  HIT:     302966  MISS:     862796
LLC LOAD      ACCESS:     632910  HIT:     111368  MISS:     521542
LLC RFO       ACCESS:     265371  HIT:      84036  MISS:     181335
LLC PREFETCH  ACCESS:          0  HIT:          0  MISS:          0
LLC WRITEBACK ACCESS:     267196  HIT:     107490  MISS:     159706
LLC TRANSLATION ACCESS:        285  HIT:         72  MISS:        213
LLC PREFETCH  REQUESTED:          0  ISSUED:          0  USEFUL:          0  USELESS:          0
LLC AVERAGE MISS LATENCY: 405.651 cycles
OPTgen accesses: 15014
OPTgen hits: 2258
OPTgen hit rate: 15.0393



DRAM Statistics
 CHANNEL 0
 RQ ROW_BUFFER_HIT:       6418  ROW_BUFFER_MISS:     696671
 DBUS AVG_CONGESTED_CYCLE:    3.97975
 WQ ROW_BUFFER_HIT:      24281  ROW_BUFFER_MISS:     229350  FULL:        653


CPU 0 Branch Prediction Accuracy: 97.7479% MPKI: 0.04701 Average ROB Occupancy at Mispredict: 283.738
Branch type MPKI
BRANCH_DIRECT_JUMP: 0
BRANCH_INDIRECT: 0
BRANCH_CONDITIONAL: 0.04701
BRANCH_DIRECT_CALL: 0
BRANCH_INDIRECT_CALL: 0
BRANCH_RETURN: 0

