
*** ChampSim Multicore Out-of-Order Simulator ***

Warmup Instructions: 10000000
Simulation Instructions: 100000000
Number of CPUs: 1
Off-chip DRAM Size: 4 GiB Channels: 1 Width: 64-bit Data Rate: 3200 MT/s

VirtualMemory physical capacity: 8588881920 num_ppages: 2096895
VirtualMemory page size: 4096 log2_page_size: 12

CPU 0 runs /Users/raghavprasad/brandon/Homework2/traces/h264ref_178B.trace.xz
CPU 0 Bimodal branch predictor
Basic BTB sets: 1024 ways: 8 indirect buffer size: 4096 RAS size: 64
Initialize Hawkeye state
Heartbeat CPU 0 instructions: 10000000 cycles: 3417062 heartbeat IPC: 2.92649 cumulative IPC: 2.92649 (Simulation time: 0 hr 1 min 12 sec) 

Warmup complete CPU 0 instructions: 10000002 cycles: 3417064 (Simulation time: 0 hr 1 min 12 sec) 

Heartbeat CPU 0 instructions: 20000003 cycles: 9540751 heartbeat IPC: 1.633 cumulative IPC: 1.633 (Simulation time: 0 hr 2 min 52 sec) 
Heartbeat CPU 0 instructions: 30000002 cycles: 15272886 heartbeat IPC: 1.74455 cumulative IPC: 1.68693 (Simulation time: 0 hr 4 min 23 sec) 
Heartbeat CPU 0 instructions: 40000002 cycles: 21169691 heartbeat IPC: 1.69583 cumulative IPC: 1.68989 (Simulation time: 0 hr 5 min 22 sec) 
Heartbeat CPU 0 instructions: 50000004 cycles: 28393881 heartbeat IPC: 1.38424 cumulative IPC: 1.60149 (Simulation time: 0 hr 6 min 41 sec) 
Heartbeat CPU 0 instructions: 60000004 cycles: 34528143 heartbeat IPC: 1.63019 cumulative IPC: 1.60714 (Simulation time: 0 hr 8 min 17 sec) 
Heartbeat CPU 0 instructions: 70000003 cycles: 39938636 heartbeat IPC: 1.84826 cumulative IPC: 1.64286 (Simulation time: 0 hr 9 min 32 sec) 
Heartbeat CPU 0 instructions: 80000001 cycles: 47710641 heartbeat IPC: 1.28667 cumulative IPC: 1.58036 (Simulation time: 0 hr 10 min 25 sec) 
Heartbeat CPU 0 instructions: 90000004 cycles: 54021670 heartbeat IPC: 1.58453 cumulative IPC: 1.58088 (Simulation time: 0 hr 11 min 55 sec) 
Heartbeat CPU 0 instructions: 100000000 cycles: 60066389 heartbeat IPC: 1.65434 cumulative IPC: 1.58872 (Simulation time: 0 hr 13 min 28 sec) 
Heartbeat CPU 0 instructions: 110000003 cycles: 66006594 heartbeat IPC: 1.68344 cumulative IPC: 1.59771 (Simulation time: 0 hr 14 min 31 sec) 
Finished CPU 0 instructions: 100000001 cycles: 62589530 cumulative IPC: 1.59771 (Simulation time: 0 hr 14 min 31 sec) 

ChampSim completed all CPUs

Region of Interest Statistics

CPU 0 cumulative IPC: 1.59771 instructions: 100000001 cycles: 62589530
cpu0_DTLB TOTAL     ACCESS:   21807805  HIT:   21681094  MISS:     126711
cpu0_DTLB LOAD      ACCESS:   18465051  HIT:   18371405  MISS:      93646
cpu0_DTLB RFO       ACCESS:    3342754  HIT:    3309689  MISS:      33065
cpu0_DTLB PREFETCH  ACCESS:          0  HIT:          0  MISS:          0
cpu0_DTLB WRITEBACK ACCESS:          0  HIT:          0  MISS:          0
cpu0_DTLB TRANSLATION ACCESS:          0  HIT:          0  MISS:          0
cpu0_DTLB PREFETCH  REQUESTED:          0  ISSUED:          0  USEFUL:          0  USELESS:          0
cpu0_DTLB AVERAGE MISS LATENCY: 9.86586 cycles
cpu0_ITLB TOTAL     ACCESS:    5572075  HIT:    5571732  MISS:        343
cpu0_ITLB LOAD      ACCESS:    5572075  HIT:    5571732  MISS:        343
cpu0_ITLB RFO       ACCESS:          0  HIT:          0  MISS:          0
cpu0_ITLB PREFETCH  ACCESS:          0  HIT:          0  MISS:          0
cpu0_ITLB WRITEBACK ACCESS:          0  HIT:          0  MISS:          0
cpu0_ITLB TRANSLATION ACCESS:          0  HIT:          0  MISS:          0
cpu0_ITLB PREFETCH  REQUESTED:          0  ISSUED:          0  USEFUL:          0  USELESS:          0
cpu0_ITLB AVERAGE MISS LATENCY: 9.86006 cycles
cpu0_L1I TOTAL     ACCESS:    5686994  HIT:    5672461  MISS:      14533
cpu0_L1I LOAD      ACCESS:    5686994  HIT:    5672461  MISS:      14533
cpu0_L1I RFO       ACCESS:          0  HIT:          0  MISS:          0
cpu0_L1I PREFETCH  ACCESS:          0  HIT:          0  MISS:          0
cpu0_L1I WRITEBACK ACCESS:          0  HIT:          0  MISS:          0
cpu0_L1I TRANSLATION ACCESS:          0  HIT:          0  MISS:          0
cpu0_L1I PREFETCH  REQUESTED:          0  ISSUED:          0  USEFUL:          0  USELESS:          0
cpu0_L1I AVERAGE MISS LATENCY: 43.2068 cycles
cpu0_STLB TOTAL     ACCESS:     127054  HIT:     126286  MISS:        768
cpu0_STLB LOAD      ACCESS:      93989  HIT:      93612  MISS:        377
cpu0_STLB RFO       ACCESS:      33065  HIT:      32674  MISS:        391
cpu0_STLB PREFETCH  ACCESS:          0  HIT:          0  MISS:          0
cpu0_STLB WRITEBACK ACCESS:          0  HIT:          0  MISS:          0
cpu0_STLB TRANSLATION ACCESS:          0  HIT:          0  MISS:          0
cpu0_STLB PREFETCH  REQUESTED:          0  ISSUED:          0  USEFUL:          0  USELESS:          0
cpu0_STLB AVERAGE MISS LATENCY: 141.822 cycles
cpu0_L1D TOTAL     ACCESS:   23020933  HIT:   22707937  MISS:     312996
cpu0_L1D LOAD      ACCESS:   17158111  HIT:   16935935  MISS:     222176
cpu0_L1D RFO       ACCESS:    5862141  HIT:    5771456  MISS:      90685
cpu0_L1D PREFETCH  ACCESS:          0  HIT:          0  MISS:          0
cpu0_L1D WRITEBACK ACCESS:          0  HIT:          0  MISS:          0
cpu0_L1D TRANSLATION ACCESS:        681  HIT:        546  MISS:        135
cpu0_L1D PREFETCH  REQUESTED:          0  ISSUED:          0  USEFUL:          0  USELESS:          0
cpu0_L1D AVERAGE MISS LATENCY: 68.3798 cycles
cpu0_L2C TOTAL     ACCESS:     419998  HIT:     239059  MISS:     180939
cpu0_L2C LOAD      ACCESS:     236708  HIT:     141080  MISS:      95628
cpu0_L2C RFO       ACCESS:      90683  HIT:       5488  MISS:      85195
cpu0_L2C PREFETCH  ACCESS:          0  HIT:          0  MISS:          0
cpu0_L2C WRITEBACK ACCESS:      92472  HIT:      92369  MISS:        103
cpu0_L2C TRANSLATION ACCESS:        135  HIT:        122  MISS:         13
cpu0_L2C PREFETCH  REQUESTED:          0  ISSUED:          0  USEFUL:          0  USELESS:          0
cpu0_L2C AVERAGE MISS LATENCY: 101.771 cycles
LLC TOTAL     ACCESS:     270634  HIT:     195779  MISS:      74855
LLC LOAD      ACCESS:      95628  HIT:      65256  MISS:      30372
LLC RFO       ACCESS:      85195  HIT:      48623  MISS:      36572
LLC PREFETCH  ACCESS:          0  HIT:          0  MISS:          0
LLC WRITEBACK ACCESS:      89798  HIT:      81887  MISS:       7911
LLC TRANSLATION ACCESS:         13  HIT:         13  MISS:          0
LLC PREFETCH  REQUESTED:          0  ISSUED:          0  USEFUL:          0  USELESS:          0
LLC AVERAGE MISS LATENCY: 195.265 cycles
OPTgen accesses: 3082
OPTgen hits: 2096
OPTgen hit rate: 68.0078



DRAM Statistics
 CHANNEL 0
 RQ ROW_BUFFER_HIT:      19879  ROW_BUFFER_MISS:      47031
 DBUS AVG_CONGESTED_CYCLE:    3.91193
 WQ ROW_BUFFER_HIT:       4540  ROW_BUFFER_MISS:      28669  FULL:        387


CPU 0 Branch Prediction Accuracy: 94.363% MPKI: 4.48464 Average ROB Occupancy at Mispredict: 160.433
Branch type MPKI
BRANCH_DIRECT_JUMP: 0.00024
BRANCH_INDIRECT: 0.00166
BRANCH_CONDITIONAL: 4.48115
BRANCH_DIRECT_CALL: 6e-05
BRANCH_INDIRECT_CALL: 0.00061
BRANCH_RETURN: 0.00092

