
*** ChampSim Multicore Out-of-Order Simulator ***

Warmup Instructions: 10000000
Simulation Instructions: 100000000
Number of CPUs: 1
Off-chip DRAM Size: 4 GiB Channels: 1 Width: 64-bit Data Rate: 3200 MT/s

VirtualMemory physical capacity: 8588881920 num_ppages: 2096895
VirtualMemory page size: 4096 log2_page_size: 12

CPU 0 runs /Users/raghavprasad/brandon/Homework2/traces/hmmer_7B.trace.xz
CPU 0 Bimodal branch predictor
Basic BTB sets: 1024 ways: 8 indirect buffer size: 4096 RAS size: 64
Initialize Hawkeye state
Heartbeat CPU 0 instructions: 10000004 cycles: 3986073 heartbeat IPC: 2.50874 cumulative IPC: 2.50874 (Simulation time: 0 hr 1 min 24 sec) 

Warmup complete CPU 0 instructions: 10000004 cycles: 3986073 (Simulation time: 0 hr 1 min 24 sec) 

Heartbeat CPU 0 instructions: 20000004 cycles: 9229897 heartbeat IPC: 1.90701 cumulative IPC: 1.90701 (Simulation time: 0 hr 3 min 18 sec) 
Heartbeat CPU 0 instructions: 30000001 cycles: 14104405 heartbeat IPC: 2.05149 cumulative IPC: 1.97661 (Simulation time: 0 hr 5 min 5 sec) 
Heartbeat CPU 0 instructions: 40000001 cycles: 18596676 heartbeat IPC: 2.22605 cumulative IPC: 2.0533 (Simulation time: 0 hr 6 min 51 sec) 
Heartbeat CPU 0 instructions: 50000000 cycles: 23841519 heartbeat IPC: 1.90663 cumulative IPC: 2.01456 (Simulation time: 0 hr 8 min 42 sec) 
Heartbeat CPU 0 instructions: 60000000 cycles: 28174628 heartbeat IPC: 2.30781 cumulative IPC: 2.06709 (Simulation time: 0 hr 10 min 27 sec) 
Heartbeat CPU 0 instructions: 70000003 cycles: 32508319 heartbeat IPC: 2.3075 cumulative IPC: 2.10362 (Simulation time: 0 hr 12 min 11 sec) 
Heartbeat CPU 0 instructions: 80000001 cycles: 36826870 heartbeat IPC: 2.31559 cumulative IPC: 2.13149 (Simulation time: 0 hr 13 min 55 sec) 
Heartbeat CPU 0 instructions: 90000004 cycles: 41157680 heartbeat IPC: 2.30904 cumulative IPC: 2.15218 (Simulation time: 0 hr 15 min 39 sec) 
Heartbeat CPU 0 instructions: 100000002 cycles: 45483644 heartbeat IPC: 2.31162 cumulative IPC: 2.1688 (Simulation time: 0 hr 17 min 22 sec) 
Heartbeat CPU 0 instructions: 110000001 cycles: 49813408 heartbeat IPC: 2.30959 cumulative IPC: 2.1821 (Simulation time: 0 hr 19 min 6 sec) 
Finished CPU 0 instructions: 100000002 cycles: 45827336 cumulative IPC: 2.1821 (Simulation time: 0 hr 19 min 6 sec) 

ChampSim completed all CPUs

Region of Interest Statistics

CPU 0 cumulative IPC: 2.1821 instructions: 100000002 cycles: 45827336
cpu0_DTLB TOTAL     ACCESS:   40545888  HIT:   40531729  MISS:      14159
cpu0_DTLB LOAD      ACCESS:   32390402  HIT:   32382680  MISS:       7722
cpu0_DTLB RFO       ACCESS:    8155486  HIT:    8149049  MISS:       6437
cpu0_DTLB PREFETCH  ACCESS:          0  HIT:          0  MISS:          0
cpu0_DTLB WRITEBACK ACCESS:          0  HIT:          0  MISS:          0
cpu0_DTLB TRANSLATION ACCESS:          0  HIT:          0  MISS:          0
cpu0_DTLB PREFETCH  REQUESTED:          0  ISSUED:          0  USEFUL:          0  USELESS:          0
cpu0_DTLB AVERAGE MISS LATENCY: 15.1676 cycles
cpu0_ITLB TOTAL     ACCESS:     800415  HIT:     800343  MISS:         72
cpu0_ITLB LOAD      ACCESS:     800415  HIT:     800343  MISS:         72
cpu0_ITLB RFO       ACCESS:          0  HIT:          0  MISS:          0
cpu0_ITLB PREFETCH  ACCESS:          0  HIT:          0  MISS:          0
cpu0_ITLB WRITEBACK ACCESS:          0  HIT:          0  MISS:          0
cpu0_ITLB TRANSLATION ACCESS:          0  HIT:          0  MISS:          0
cpu0_ITLB PREFETCH  REQUESTED:          0  ISSUED:          0  USEFUL:          0  USELESS:          0
cpu0_ITLB AVERAGE MISS LATENCY: 21 cycles
cpu0_L1I TOTAL     ACCESS:      62028  HIT:      61923  MISS:        105
cpu0_L1I LOAD      ACCESS:      62028  HIT:      61923  MISS:        105
cpu0_L1I RFO       ACCESS:          0  HIT:          0  MISS:          0
cpu0_L1I PREFETCH  ACCESS:          0  HIT:          0  MISS:          0
cpu0_L1I WRITEBACK ACCESS:          0  HIT:          0  MISS:          0
cpu0_L1I TRANSLATION ACCESS:          0  HIT:          0  MISS:          0
cpu0_L1I PREFETCH  REQUESTED:          0  ISSUED:          0  USEFUL:          0  USELESS:          0
cpu0_L1I AVERAGE MISS LATENCY: 106.295 cycles
cpu0_STLB TOTAL     ACCESS:      14231  HIT:      13776  MISS:        455
cpu0_STLB LOAD      ACCESS:       7794  HIT:       7786  MISS:          8
cpu0_STLB RFO       ACCESS:       6437  HIT:       5990  MISS:        447
cpu0_STLB PREFETCH  ACCESS:          0  HIT:          0  MISS:          0
cpu0_STLB WRITEBACK ACCESS:          0  HIT:          0  MISS:          0
cpu0_STLB TRANSLATION ACCESS:          0  HIT:          0  MISS:          0
cpu0_STLB PREFETCH  REQUESTED:          0  ISSUED:          0  USEFUL:          0  USELESS:          0
cpu0_STLB AVERAGE MISS LATENCY: 193.626 cycles
cpu0_L1D TOTAL     ACCESS:   33406364  HIT:   32936283  MISS:     470081
cpu0_L1D LOAD      ACCESS:   28671718  HIT:   28510368  MISS:     161350
cpu0_L1D RFO       ACCESS:    4734192  HIT:    4425484  MISS:     308708
cpu0_L1D PREFETCH  ACCESS:          0  HIT:          0  MISS:          0
cpu0_L1D WRITEBACK ACCESS:          0  HIT:          0  MISS:          0
cpu0_L1D TRANSLATION ACCESS:        454  HIT:        431  MISS:         23
cpu0_L1D PREFETCH  REQUESTED:          0  ISSUED:          0  USEFUL:          0  USELESS:          0
cpu0_L1D AVERAGE MISS LATENCY: 248.921 cycles
cpu0_L2C TOTAL     ACCESS:     777061  HIT:     473615  MISS:     303446
cpu0_L2C LOAD      ACCESS:     161455  HIT:     148955  MISS:      12500
cpu0_L2C RFO       ACCESS:     308708  HIT:      17819  MISS:     290889
cpu0_L2C PREFETCH  ACCESS:          0  HIT:          0  MISS:          0
cpu0_L2C WRITEBACK ACCESS:     306875  HIT:     306827  MISS:         48
cpu0_L2C TRANSLATION ACCESS:         23  HIT:         14  MISS:          9
cpu0_L2C PREFETCH  REQUESTED:          0  ISSUED:          0  USEFUL:          0  USELESS:          0
cpu0_L2C AVERAGE MISS LATENCY: 368.593 cycles
LLC TOTAL     ACCESS:     593466  HIT:     434286  MISS:     159180
LLC LOAD      ACCESS:      12500  HIT:      10532  MISS:       1968
LLC RFO       ACCESS:     290889  HIT:     201099  MISS:      89790
LLC PREFETCH  ACCESS:          0  HIT:          0  MISS:          0
LLC WRITEBACK ACCESS:     290068  HIT:     222649  MISS:      67419
LLC TRANSLATION ACCESS:          9  HIT:          6  MISS:          3
LLC PREFETCH  REQUESTED:          0  ISSUED:          0  USEFUL:          0  USELESS:          0
LLC AVERAGE MISS LATENCY: 662.529 cycles
OPTgen accesses: 5338
OPTgen hits: 3468
OPTgen hit rate: 64.9682



DRAM Statistics
 CHANNEL 0
 RQ ROW_BUFFER_HIT:       2160  ROW_BUFFER_MISS:      89600
 DBUS AVG_CONGESTED_CYCLE:     3.9935
 WQ ROW_BUFFER_HIT:       4830  ROW_BUFFER_MISS:      85927  FULL:      15544


CPU 0 Branch Prediction Accuracy: 98.9368% MPKI: 0.40856 Average ROB Occupancy at Mispredict: 252.416
Branch type MPKI
BRANCH_DIRECT_JUMP: 0.00016
BRANCH_INDIRECT: 0.00157
BRANCH_CONDITIONAL: 0.40659
BRANCH_DIRECT_CALL: 9e-05
BRANCH_INDIRECT_CALL: 3e-05
BRANCH_RETURN: 0.00012

