
*** ChampSim Multicore Out-of-Order Simulator ***

Warmup Instructions: 10000000
Simulation Instructions: 100000000
Number of CPUs: 1
Off-chip DRAM Size: 4 GiB Channels: 1 Width: 64-bit Data Rate: 3200 MT/s

VirtualMemory physical capacity: 8588881920 num_ppages: 2096895
VirtualMemory page size: 4096 log2_page_size: 12

CPU 0 runs /Users/raghavprasad/brandon/Homework2/traces/hmmer_397B.trace.xz
CPU 0 Bimodal branch predictor
Basic BTB sets: 1024 ways: 8 indirect buffer size: 4096 RAS size: 64
Initialize Hawkeye state
Heartbeat CPU 0 instructions: 10000000 cycles: 3996186 heartbeat IPC: 2.50239 cumulative IPC: 2.50239 (Simulation time: 0 hr 1 min 26 sec) 

Warmup complete CPU 0 instructions: 10000005 cycles: 3996189 (Simulation time: 0 hr 1 min 26 sec) 

Heartbeat CPU 0 instructions: 20000002 cycles: 9345604 heartbeat IPC: 1.86936 cumulative IPC: 1.86936 (Simulation time: 0 hr 3 min 18 sec) 
Heartbeat CPU 0 instructions: 30000003 cycles: 14242155 heartbeat IPC: 2.04225 cumulative IPC: 1.95199 (Simulation time: 0 hr 5 min 8 sec) 
Heartbeat CPU 0 instructions: 40000003 cycles: 18890566 heartbeat IPC: 2.15127 cumulative IPC: 2.01418 (Simulation time: 0 hr 6 min 56 sec) 
Heartbeat CPU 0 instructions: 50000001 cycles: 24115736 heartbeat IPC: 1.91381 cumulative IPC: 1.98812 (Simulation time: 0 hr 8 min 49 sec) 
Heartbeat CPU 0 instructions: 60000002 cycles: 28582750 heartbeat IPC: 2.23863 cumulative IPC: 2.03363 (Simulation time: 0 hr 10 min 35 sec) 
Heartbeat CPU 0 instructions: 70000004 cycles: 33412556 heartbeat IPC: 2.07048 cumulative IPC: 2.03968 (Simulation time: 0 hr 12 min 23 sec) 
Heartbeat CPU 0 instructions: 80000000 cycles: 37791385 heartbeat IPC: 2.28371 cumulative IPC: 2.0713 (Simulation time: 0 hr 14 min 8 sec) 
Heartbeat CPU 0 instructions: 90000004 cycles: 42146024 heartbeat IPC: 2.2964 cumulative IPC: 2.09699 (Simulation time: 0 hr 15 min 52 sec) 
Heartbeat CPU 0 instructions: 100000003 cycles: 46484937 heartbeat IPC: 2.30472 cumulative IPC: 2.11821 (Simulation time: 0 hr 17 min 36 sec) 
Heartbeat CPU 0 instructions: 110000001 cycles: 50831524 heartbeat IPC: 2.30066 cumulative IPC: 2.13514 (Simulation time: 0 hr 19 min 19 sec) 
Finished CPU 0 instructions: 100000001 cycles: 46835336 cumulative IPC: 2.13514 (Simulation time: 0 hr 19 min 19 sec) 

ChampSim completed all CPUs

Region of Interest Statistics

CPU 0 cumulative IPC: 2.13514 instructions: 100000001 cycles: 46835336
cpu0_DTLB TOTAL     ACCESS:   40462017  HIT:   40454060  MISS:       7957
cpu0_DTLB LOAD      ACCESS:   32298891  HIT:   32296016  MISS:       2875
cpu0_DTLB RFO       ACCESS:    8163126  HIT:    8158044  MISS:       5082
cpu0_DTLB PREFETCH  ACCESS:          0  HIT:          0  MISS:          0
cpu0_DTLB WRITEBACK ACCESS:          0  HIT:          0  MISS:          0
cpu0_DTLB TRANSLATION ACCESS:          0  HIT:          0  MISS:          0
cpu0_DTLB PREFETCH  REQUESTED:          0  ISSUED:          0  USEFUL:          0  USELESS:          0
cpu0_DTLB AVERAGE MISS LATENCY: 26.3001 cycles
cpu0_ITLB TOTAL     ACCESS:     801113  HIT:     801006  MISS:        107
cpu0_ITLB LOAD      ACCESS:     801113  HIT:     801006  MISS:        107
cpu0_ITLB RFO       ACCESS:          0  HIT:          0  MISS:          0
cpu0_ITLB PREFETCH  ACCESS:          0  HIT:          0  MISS:          0
cpu0_ITLB WRITEBACK ACCESS:          0  HIT:          0  MISS:          0
cpu0_ITLB TRANSLATION ACCESS:          0  HIT:          0  MISS:          0
cpu0_ITLB PREFETCH  REQUESTED:          0  ISSUED:          0  USEFUL:          0  USELESS:          0
cpu0_ITLB AVERAGE MISS LATENCY: 79.2617 cycles
cpu0_L1I TOTAL     ACCESS:      64809  HIT:      64473  MISS:        336
cpu0_L1I LOAD      ACCESS:      64809  HIT:      64473  MISS:        336
cpu0_L1I RFO       ACCESS:          0  HIT:          0  MISS:          0
cpu0_L1I PREFETCH  ACCESS:          0  HIT:          0  MISS:          0
cpu0_L1I WRITEBACK ACCESS:          0  HIT:          0  MISS:          0
cpu0_L1I TRANSLATION ACCESS:          0  HIT:          0  MISS:          0
cpu0_L1I PREFETCH  REQUESTED:          0  ISSUED:          0  USEFUL:          0  USELESS:          0
cpu0_L1I AVERAGE MISS LATENCY: 282.208 cycles
cpu0_STLB TOTAL     ACCESS:       8064  HIT:       7284  MISS:        780
cpu0_STLB LOAD      ACCESS:       2982  HIT:       2815  MISS:        167
cpu0_STLB RFO       ACCESS:       5082  HIT:       4469  MISS:        613
cpu0_STLB PREFETCH  ACCESS:          0  HIT:          0  MISS:          0
cpu0_STLB WRITEBACK ACCESS:          0  HIT:          0  MISS:          0
cpu0_STLB TRANSLATION ACCESS:          0  HIT:          0  MISS:          0
cpu0_STLB PREFETCH  REQUESTED:          0  ISSUED:          0  USEFUL:          0  USELESS:          0
cpu0_STLB AVERAGE MISS LATENCY: 186.029 cycles
cpu0_L1D TOTAL     ACCESS:   32890386  HIT:   32424588  MISS:     465798
cpu0_L1D LOAD      ACCESS:   28666561  HIT:   28509934  MISS:     156627
cpu0_L1D RFO       ACCESS:    4223056  HIT:    3914071  MISS:     308985
cpu0_L1D PREFETCH  ACCESS:          0  HIT:          0  MISS:          0
cpu0_L1D WRITEBACK ACCESS:          0  HIT:          0  MISS:          0
cpu0_L1D TRANSLATION ACCESS:        769  HIT:        583  MISS:        186
cpu0_L1D PREFETCH  REQUESTED:          0  ISSUED:          0  USEFUL:          0  USELESS:          0
cpu0_L1D AVERAGE MISS LATENCY: 308.435 cycles
cpu0_L2C TOTAL     ACCESS:     773162  HIT:     487413  MISS:     285749
cpu0_L2C LOAD      ACCESS:     156963  HIT:     143030  MISS:      13933
cpu0_L2C RFO       ACCESS:     308985  HIT:      37231  MISS:     271754
cpu0_L2C PREFETCH  ACCESS:          0  HIT:          0  MISS:          0
cpu0_L2C WRITEBACK ACCESS:     307028  HIT:     306985  MISS:         43
cpu0_L2C TRANSLATION ACCESS:        186  HIT:        167  MISS:         19
cpu0_L2C PREFETCH  REQUESTED:          0  ISSUED:          0  USEFUL:          0  USELESS:          0
cpu0_L2C AVERAGE MISS LATENCY: 485.152 cycles
LLC TOTAL     ACCESS:     556037  HIT:     341279  MISS:     214758
LLC LOAD      ACCESS:      13933  HIT:      10210  MISS:       3723
LLC RFO       ACCESS:     271637  HIT:     146505  MISS:     125132
LLC PREFETCH  ACCESS:          0  HIT:          0  MISS:          0
LLC WRITEBACK ACCESS:     270448  HIT:     184554  MISS:      85894
LLC TRANSLATION ACCESS:         19  HIT:         10  MISS:          9
LLC PREFETCH  REQUESTED:          0  ISSUED:          0  USEFUL:          0  USELESS:          0
LLC AVERAGE MISS LATENCY: 617.549 cycles
OPTgen accesses: 5028
OPTgen hits: 2644
OPTgen hit rate: 52.5855



DRAM Statistics
 CHANNEL 0
 RQ ROW_BUFFER_HIT:       1530  ROW_BUFFER_MISS:     127309
 DBUS AVG_CONGESTED_CYCLE:    3.99295
 WQ ROW_BUFFER_HIT:       9280  ROW_BUFFER_MISS:     116672  FULL:      10900


CPU 0 Branch Prediction Accuracy: 98.9257% MPKI: 0.41399 Average ROB Occupancy at Mispredict: 249.93
Branch type MPKI
BRANCH_DIRECT_JUMP: 0.00081
BRANCH_INDIRECT: 0.00176
BRANCH_CONDITIONAL: 0.40978
BRANCH_DIRECT_CALL: 0.00081
BRANCH_INDIRECT_CALL: 2e-05
BRANCH_RETURN: 0.00081

