
*** ChampSim Multicore Out-of-Order Simulator ***

Warmup Instructions: 10000000
Simulation Instructions: 100000000
Number of CPUs: 1
Off-chip DRAM Size: 4 GiB Channels: 1 Width: 64-bit Data Rate: 3200 MT/s

VirtualMemory physical capacity: 8588881920 num_ppages: 2096895
VirtualMemory page size: 4096 log2_page_size: 12

CPU 0 runs /Users/raghavprasad/brandon/Homework2/traces/lbm_564B.trace.xz
CPU 0 Bimodal branch predictor
Basic BTB sets: 1024 ways: 8 indirect buffer size: 4096 RAS size: 64
Initialize Hawkeye state
Heartbeat CPU 0 instructions: 10000000 cycles: 2507078 heartbeat IPC: 3.98871 cumulative IPC: 3.98871 (Simulation time: 0 hr 0 min 36 sec) 

Warmup complete CPU 0 instructions: 10000004 cycles: 2507079 (Simulation time: 0 hr 0 min 36 sec) 

Heartbeat CPU 0 instructions: 20000004 cycles: 40933465 heartbeat IPC: 0.260238 cumulative IPC: 0.260238 (Simulation time: 0 hr 4 min 31 sec) 
Heartbeat CPU 0 instructions: 30000000 cycles: 106093583 heartbeat IPC: 0.153468 cumulative IPC: 0.193075 (Simulation time: 0 hr 12 min 46 sec) 
Heartbeat CPU 0 instructions: 40000000 cycles: 144627170 heartbeat IPC: 0.259514 cumulative IPC: 0.211089 (Simulation time: 0 hr 16 min 40 sec) 
Heartbeat CPU 0 instructions: 50000000 cycles: 183111856 heartbeat IPC: 0.259844 cumulative IPC: 0.221478 (Simulation time: 0 hr 20 min 34 sec) 
Heartbeat CPU 0 instructions: 60000001 cycles: 221767751 heartbeat IPC: 0.258693 cumulative IPC: 0.228039 (Simulation time: 0 hr 24 min 30 sec) 
Heartbeat CPU 0 instructions: 70000002 cycles: 261458033 heartbeat IPC: 0.251951 cumulative IPC: 0.231704 (Simulation time: 0 hr 28 min 36 sec) 
Heartbeat CPU 0 instructions: 80000004 cycles: 302787888 heartbeat IPC: 0.241956 cumulative IPC: 0.233115 (Simulation time: 0 hr 32 min 57 sec) 
Heartbeat CPU 0 instructions: 90000003 cycles: 344487447 heartbeat IPC: 0.239811 cumulative IPC: 0.233932 (Simulation time: 0 hr 37 min 24 sec) 
Heartbeat CPU 0 instructions: 100000004 cycles: 386490802 heartbeat IPC: 0.238076 cumulative IPC: 0.234385 (Simulation time: 0 hr 42 min 21 sec) 
Heartbeat CPU 0 instructions: 110000003 cycles: 430115337 heartbeat IPC: 0.229229 cumulative IPC: 0.233859 (Simulation time: 0 hr 47 min 46 sec) 
Finished CPU 0 instructions: 100000004 cycles: 427608259 cumulative IPC: 0.233859 (Simulation time: 0 hr 47 min 46 sec) 

ChampSim completed all CPUs

Region of Interest Statistics

CPU 0 cumulative IPC: 0.233859 instructions: 100000004 cycles: 427608259
cpu0_DTLB TOTAL     ACCESS:   13908359  HIT:   13855585  MISS:      52774
cpu0_DTLB LOAD      ACCESS:    7001786  HIT:    6988587  MISS:      13199
cpu0_DTLB RFO       ACCESS:    6906573  HIT:    6866998  MISS:      39575
cpu0_DTLB PREFETCH  ACCESS:          0  HIT:          0  MISS:          0
cpu0_DTLB WRITEBACK ACCESS:          0  HIT:          0  MISS:          0
cpu0_DTLB TRANSLATION ACCESS:          0  HIT:          0  MISS:          0
cpu0_DTLB PREFETCH  REQUESTED:          0  ISSUED:          0  USEFUL:          0  USELESS:          0
cpu0_DTLB AVERAGE MISS LATENCY: 516.482 cycles
cpu0_ITLB TOTAL     ACCESS:     150129  HIT:     150128  MISS:          1
cpu0_ITLB LOAD      ACCESS:     150129  HIT:     150128  MISS:          1
cpu0_ITLB RFO       ACCESS:          0  HIT:          0  MISS:          0
cpu0_ITLB PREFETCH  ACCESS:          0  HIT:          0  MISS:          0
cpu0_ITLB WRITEBACK ACCESS:          0  HIT:          0  MISS:          0
cpu0_ITLB TRANSLATION ACCESS:          0  HIT:          0  MISS:          0
cpu0_ITLB PREFETCH  REQUESTED:          0  ISSUED:          0  USEFUL:          0  USELESS:          0
cpu0_ITLB AVERAGE MISS LATENCY: 249 cycles
cpu0_L1I TOTAL     ACCESS:         12  HIT:          6  MISS:          6
cpu0_L1I LOAD      ACCESS:         12  HIT:          6  MISS:          6
cpu0_L1I RFO       ACCESS:          0  HIT:          0  MISS:          0
cpu0_L1I PREFETCH  ACCESS:          0  HIT:          0  MISS:          0
cpu0_L1I WRITEBACK ACCESS:          0  HIT:          0  MISS:          0
cpu0_L1I TRANSLATION ACCESS:          0  HIT:          0  MISS:          0
cpu0_L1I PREFETCH  REQUESTED:          0  ISSUED:          0  USEFUL:          0  USELESS:          0
cpu0_L1I AVERAGE MISS LATENCY: 580.833 cycles
cpu0_STLB TOTAL     ACCESS:      52775  HIT:          5  MISS:      52770
cpu0_STLB LOAD      ACCESS:      13200  HIT:          0  MISS:      13200
cpu0_STLB RFO       ACCESS:      39575  HIT:          5  MISS:      39570
cpu0_STLB PREFETCH  ACCESS:          0  HIT:          0  MISS:          0
cpu0_STLB WRITEBACK ACCESS:          0  HIT:          0  MISS:          0
cpu0_STLB TRANSLATION ACCESS:          0  HIT:          0  MISS:          0
cpu0_STLB PREFETCH  REQUESTED:          0  ISSUED:          0  USEFUL:          0  USELESS:          0
cpu0_STLB AVERAGE MISS LATENCY: 507.525 cycles
cpu0_L1D TOTAL     ACCESS:   15382606  HIT:    9816422  MISS:    5566184
cpu0_L1D LOAD      ACCESS:    4364373  HIT:    3520790  MISS:     843583
cpu0_L1D RFO       ACCESS:   10965479  HIT:    6242929  MISS:    4722550
cpu0_L1D PREFETCH  ACCESS:          0  HIT:          0  MISS:          0
cpu0_L1D WRITEBACK ACCESS:          0  HIT:          0  MISS:          0
cpu0_L1D TRANSLATION ACCESS:      52754  HIT:      52703  MISS:         51
cpu0_L1D PREFETCH  REQUESTED:          0  ISSUED:          0  USEFUL:          0  USELESS:          0
cpu0_L1D AVERAGE MISS LATENCY: 648.047 cycles
cpu0_L2C TOTAL     ACCESS:   10288739  HIT:    6913386  MISS:    3375353
cpu0_L2C LOAD      ACCESS:     843589  HIT:        215  MISS:     843374
cpu0_L2C RFO       ACCESS:    4722550  HIT:    2190746  MISS:    2531804
cpu0_L2C PREFETCH  ACCESS:          0  HIT:          0  MISS:          0
cpu0_L2C WRITEBACK ACCESS:    4722549  HIT:    4722425  MISS:        124
cpu0_L2C TRANSLATION ACCESS:         51  HIT:          0  MISS:         51
cpu0_L2C PREFETCH  REQUESTED:          0  ISSUED:          0  USEFUL:          0  USELESS:          0
cpu0_L2C AVERAGE MISS LATENCY: 1049.25 cycles
LLC TOTAL     ACCESS:    5907344  HIT:      10806  MISS:    5896538
LLC LOAD      ACCESS:     843374  HIT:        120  MISS:     843254
LLC RFO       ACCESS:    2531801  HIT:       2404  MISS:    2529397
LLC PREFETCH  ACCESS:          0  HIT:          0  MISS:          0
LLC WRITEBACK ACCESS:    2532118  HIT:       8245  MISS:    2523873
LLC TRANSLATION ACCESS:         51  HIT:         37  MISS:         14
LLC PREFETCH  REQUESTED:          0  ISSUED:          0  USEFUL:          0  USELESS:          0
LLC AVERAGE MISS LATENCY: 588.602 cycles
OPTgen accesses: 57403
OPTgen hits: 401
OPTgen hit rate: 0.69857



DRAM Statistics
 CHANNEL 0
 RQ ROW_BUFFER_HIT:      58375  ROW_BUFFER_MISS:    3314229
 DBUS AVG_CONGESTED_CYCLE:    3.99843
 WQ ROW_BUFFER_HIT:      49655  ROW_BUFFER_MISS:    2486358  FULL:          0


CPU 0 Branch Prediction Accuracy: 99.0902% MPKI: 0.11542 Average ROB Occupancy at Mispredict: 181.949
Branch type MPKI
BRANCH_DIRECT_JUMP: 2e-05
BRANCH_INDIRECT: 0
BRANCH_CONDITIONAL: 0.11536
BRANCH_DIRECT_CALL: 2e-05
BRANCH_INDIRECT_CALL: 0
BRANCH_RETURN: 2e-05

