
*** ChampSim Multicore Out-of-Order Simulator ***

Warmup Instructions: 10000000
Simulation Instructions: 100000000
Number of CPUs: 1
Off-chip DRAM Size: 4 GiB Channels: 1 Width: 64-bit Data Rate: 3200 MT/s

VirtualMemory physical capacity: 8588881920 num_ppages: 2096895
VirtualMemory page size: 4096 log2_page_size: 12

CPU 0 runs /Users/raghavprasad/brandon/Homework2/traces/libquantum_1735B.trace.xz
CPU 0 Bimodal branch predictor
Basic BTB sets: 1024 ways: 8 indirect buffer size: 4096 RAS size: 64
Initialize Hawkeye state
Heartbeat CPU 0 instructions: 10000002 cycles: 2500058 heartbeat IPC: 3.99991 cumulative IPC: 3.99991 (Simulation time: 0 hr 0 min 39 sec) 

Warmup complete CPU 0 instructions: 10000002 cycles: 2500058 (Simulation time: 0 hr 0 min 39 sec) 

Heartbeat CPU 0 instructions: 20000003 cycles: 36660690 heartbeat IPC: 0.292735 cumulative IPC: 0.292735 (Simulation time: 0 hr 2 min 4 sec) 
Heartbeat CPU 0 instructions: 30000001 cycles: 70503793 heartbeat IPC: 0.295481 cumulative IPC: 0.294101 (Simulation time: 0 hr 3 min 24 sec) 
Heartbeat CPU 0 instructions: 40000003 cycles: 109603721 heartbeat IPC: 0.255755 cumulative IPC: 0.280102 (Simulation time: 0 hr 4 min 47 sec) 
Heartbeat CPU 0 instructions: 50000002 cycles: 147911793 heartbeat IPC: 0.261042 cumulative IPC: 0.275081 (Simulation time: 0 hr 6 min 10 sec) 
Heartbeat CPU 0 instructions: 60000001 cycles: 152742729 heartbeat IPC: 2.06999 cumulative IPC: 0.332795 (Simulation time: 0 hr 7 min 19 sec) 
Heartbeat CPU 0 instructions: 70000002 cycles: 157746721 heartbeat IPC: 1.9984 cumulative IPC: 0.386482 (Simulation time: 0 hr 8 min 32 sec) 
Heartbeat CPU 0 instructions: 80000000 cycles: 196416229 heartbeat IPC: 0.258602 cumulative IPC: 0.360981 (Simulation time: 0 hr 9 min 50 sec) 
Heartbeat CPU 0 instructions: 90000000 cycles: 236681359 heartbeat IPC: 0.248354 cumulative IPC: 0.341616 (Simulation time: 0 hr 11 min 13 sec) 
Heartbeat CPU 0 instructions: 100000000 cycles: 295032625 heartbeat IPC: 0.171376 cumulative IPC: 0.307658 (Simulation time: 0 hr 12 min 42 sec) 
Heartbeat CPU 0 instructions: 110000003 cycles: 335149991 heartbeat IPC: 0.249269 cumulative IPC: 0.300616 (Simulation time: 0 hr 14 min 3 sec) 
Finished CPU 0 instructions: 100000001 cycles: 332649933 cumulative IPC: 0.300616 (Simulation time: 0 hr 14 min 3 sec) 

ChampSim completed all CPUs

Region of Interest Statistics

CPU 0 cumulative IPC: 0.300616 instructions: 100000001 cycles: 332649933
cpu0_DTLB TOTAL     ACCESS:    9903380  HIT:    9859777  MISS:      43603
cpu0_DTLB LOAD      ACCESS:    8270294  HIT:    8226696  MISS:      43598
cpu0_DTLB RFO       ACCESS:    1633086  HIT:    1633081  MISS:          5
cpu0_DTLB PREFETCH  ACCESS:          0  HIT:          0  MISS:          0
cpu0_DTLB WRITEBACK ACCESS:          0  HIT:          0  MISS:          0
cpu0_DTLB TRANSLATION ACCESS:          0  HIT:          0  MISS:          0
cpu0_DTLB PREFETCH  REQUESTED:          0  ISSUED:          0  USEFUL:          0  USELESS:          0
cpu0_DTLB AVERAGE MISS LATENCY: 35.7679 cycles
cpu0_ITLB TOTAL     ACCESS:    4579402  HIT:    4579402  MISS:          0
cpu0_ITLB LOAD      ACCESS:    4579402  HIT:    4579402  MISS:          0
cpu0_ITLB RFO       ACCESS:          0  HIT:          0  MISS:          0
cpu0_ITLB PREFETCH  ACCESS:          0  HIT:          0  MISS:          0
cpu0_ITLB WRITEBACK ACCESS:          0  HIT:          0  MISS:          0
cpu0_ITLB TRANSLATION ACCESS:          0  HIT:          0  MISS:          0
cpu0_ITLB PREFETCH  REQUESTED:          0  ISSUED:          0  USEFUL:          0  USELESS:          0
cpu0_ITLB AVERAGE MISS LATENCY: nan cycles
cpu0_L1I TOTAL     ACCESS:         20  HIT:         11  MISS:          9
cpu0_L1I LOAD      ACCESS:         20  HIT:         11  MISS:          9
cpu0_L1I RFO       ACCESS:          0  HIT:          0  MISS:          0
cpu0_L1I PREFETCH  ACCESS:          0  HIT:          0  MISS:          0
cpu0_L1I WRITEBACK ACCESS:          0  HIT:          0  MISS:          0
cpu0_L1I TRANSLATION ACCESS:          0  HIT:          0  MISS:          0
cpu0_L1I PREFETCH  REQUESTED:          0  ISSUED:          0  USEFUL:          0  USELESS:          0
cpu0_L1I AVERAGE MISS LATENCY: 338.444 cycles
cpu0_STLB TOTAL     ACCESS:      43603  HIT:          0  MISS:      43603
cpu0_STLB LOAD      ACCESS:      43598  HIT:          0  MISS:      43598
cpu0_STLB RFO       ACCESS:          5  HIT:          0  MISS:          5
cpu0_STLB PREFETCH  ACCESS:          0  HIT:          0  MISS:          0
cpu0_STLB WRITEBACK ACCESS:          0  HIT:          0  MISS:          0
cpu0_STLB TRANSLATION ACCESS:          0  HIT:          0  MISS:          0
cpu0_STLB PREFETCH  REQUESTED:          0  ISSUED:          0  USEFUL:          0  USELESS:          0
cpu0_STLB AVERAGE MISS LATENCY: 26.7679 cycles
cpu0_L1D TOTAL     ACCESS:    6545934  HIT:    3756501  MISS:    2789433
cpu0_L1D LOAD      ACCESS:    4613826  HIT:    1824443  MISS:    2789383
cpu0_L1D RFO       ACCESS:    1888505  HIT:    1888485  MISS:         20
cpu0_L1D PREFETCH  ACCESS:          0  HIT:          0  MISS:          0
cpu0_L1D WRITEBACK ACCESS:          0  HIT:          0  MISS:          0
cpu0_L1D TRANSLATION ACCESS:      43603  HIT:      43573  MISS:         30
cpu0_L1D PREFETCH  REQUESTED:          0  ISSUED:          0  USEFUL:          0  USELESS:          0
cpu0_L1D AVERAGE MISS LATENCY: 162.755 cycles
cpu0_L2C TOTAL     ACCESS:    3804021  HIT:    1014579  MISS:    2789442
cpu0_L2C LOAD      ACCESS:    2789392  HIT:          0  MISS:    2789392
cpu0_L2C RFO       ACCESS:         20  HIT:          0  MISS:         20
cpu0_L2C PREFETCH  ACCESS:          0  HIT:          0  MISS:          0
cpu0_L2C WRITEBACK ACCESS:    1014579  HIT:    1014579  MISS:          0
cpu0_L2C TRANSLATION ACCESS:         30  HIT:          0  MISS:         30
cpu0_L2C PREFETCH  REQUESTED:          0  ISSUED:          0  USEFUL:          0  USELESS:          0
cpu0_L2C AVERAGE MISS LATENCY: 151.752 cycles
LLC TOTAL     ACCESS:    3798499  HIT:     155727  MISS:    3642772
LLC LOAD      ACCESS:    2789392  HIT:     153468  MISS:    2635924
LLC RFO       ACCESS:         20  HIT:         20  MISS:          0
LLC PREFETCH  ACCESS:          0  HIT:          0  MISS:          0
LLC WRITEBACK ACCESS:    1009057  HIT:       2227  MISS:    1006830
LLC TRANSLATION ACCESS:         30  HIT:         12  MISS:         18
LLC PREFETCH  REQUESTED:          0  ISSUED:          0  USEFUL:          0  USELESS:          0
LLC AVERAGE MISS LATENCY: 100.118 cycles
OPTgen accesses: 47710
OPTgen hits: 299
OPTgen hit rate: 0.626703



DRAM Statistics
 CHANNEL 0
 RQ ROW_BUFFER_HIT:    1319583  ROW_BUFFER_MISS:    1316359
 DBUS AVG_CONGESTED_CYCLE:    3.72988
 WQ ROW_BUFFER_HIT:     333455  ROW_BUFFER_MISS:     670987  FULL:       7144


CPU 0 Branch Prediction Accuracy: 89.0086% MPKI: 24.5272 Average ROB Occupancy at Mispredict: 3.9152
Branch type MPKI
BRANCH_DIRECT_JUMP: 2e-05
BRANCH_INDIRECT: 0
BRANCH_CONDITIONAL: 24.527
BRANCH_DIRECT_CALL: 8e-05
BRANCH_INDIRECT_CALL: 0
BRANCH_RETURN: 8e-05

