
*** ChampSim Multicore Out-of-Order Simulator ***

Warmup Instructions: 10000000
Simulation Instructions: 100000000
Number of CPUs: 1
Off-chip DRAM Size: 4 GiB Channels: 1 Width: 64-bit Data Rate: 3200 MT/s

VirtualMemory physical capacity: 8588881920 num_ppages: 2096895
VirtualMemory page size: 4096 log2_page_size: 12

CPU 0 runs /Users/raghavprasad/brandon/Homework2/traces/mcf_158B.trace.xz
CPU 0 Bimodal branch predictor
Basic BTB sets: 1024 ways: 8 indirect buffer size: 4096 RAS size: 64
Initialize Hawkeye state
Heartbeat CPU 0 instructions: 10000002 cycles: 3864096 heartbeat IPC: 2.58793 cumulative IPC: 2.58793 (Simulation time: 0 hr 1 min 30 sec) 

Warmup complete CPU 0 instructions: 10000002 cycles: 3864096 (Simulation time: 0 hr 1 min 30 sec) 

Heartbeat CPU 0 instructions: 20000000 cycles: 138786136 heartbeat IPC: 0.0741169 cumulative IPC: 0.0741169 (Simulation time: 0 hr 5 min 12 sec) 
Heartbeat CPU 0 instructions: 30000000 cycles: 266506665 heartbeat IPC: 0.0782959 cumulative IPC: 0.0761491 (Simulation time: 0 hr 8 min 32 sec) 
Heartbeat CPU 0 instructions: 40000001 cycles: 392100883 heartbeat IPC: 0.0796215 cumulative IPC: 0.0772724 (Simulation time: 0 hr 11 min 54 sec) 
Heartbeat CPU 0 instructions: 50000000 cycles: 509124055 heartbeat IPC: 0.0854532 cumulative IPC: 0.0791672 (Simulation time: 0 hr 15 min 1 sec) 
Heartbeat CPU 0 instructions: 60000000 cycles: 622120751 heartbeat IPC: 0.0884982 cumulative IPC: 0.0808726 (Simulation time: 0 hr 18 min 26 sec) 
Heartbeat CPU 0 instructions: 70000002 cycles: 732864625 heartbeat IPC: 0.0902985 cumulative IPC: 0.0823045 (Simulation time: 0 hr 21 min 45 sec) 
Heartbeat CPU 0 instructions: 80000000 cycles: 845701127 heartbeat IPC: 0.0886238 cumulative IPC: 0.0831515 (Simulation time: 0 hr 25 min 1 sec) 
Heartbeat CPU 0 instructions: 90000003 cycles: 962095095 heartbeat IPC: 0.0859151 cumulative IPC: 0.0834872 (Simulation time: 0 hr 28 min 24 sec) 
Heartbeat CPU 0 instructions: 100000003 cycles: 1080397803 heartbeat IPC: 0.0845289 cumulative IPC: 0.0836017 (Simulation time: 0 hr 31 min 54 sec) 
Heartbeat CPU 0 instructions: 110000001 cycles: 1199808613 heartbeat IPC: 0.0837445 cumulative IPC: 0.0836159 (Simulation time: 0 hr 35 min 1 sec) 
Finished CPU 0 instructions: 100000002 cycles: 1195944518 cumulative IPC: 0.0836159 (Simulation time: 0 hr 35 min 1 sec) 

ChampSim completed all CPUs

Region of Interest Statistics

CPU 0 cumulative IPC: 0.0836159 instructions: 100000002 cycles: 1195944518
cpu0_DTLB TOTAL     ACCESS:   23553019  HIT:   12731177  MISS:   10821842
cpu0_DTLB LOAD      ACCESS:   20431701  HIT:    9977065  MISS:   10454636
cpu0_DTLB RFO       ACCESS:    3121318  HIT:    2754112  MISS:     367206
cpu0_DTLB PREFETCH  ACCESS:          0  HIT:          0  MISS:          0
cpu0_DTLB WRITEBACK ACCESS:          0  HIT:          0  MISS:          0
cpu0_DTLB TRANSLATION ACCESS:          0  HIT:          0  MISS:          0
cpu0_DTLB PREFETCH  REQUESTED:          0  ISSUED:          0  USEFUL:          0  USELESS:          0
cpu0_DTLB AVERAGE MISS LATENCY: 11.6742 cycles
cpu0_ITLB TOTAL     ACCESS:   12957267  HIT:   12957267  MISS:          0
cpu0_ITLB LOAD      ACCESS:   12957267  HIT:   12957267  MISS:          0
cpu0_ITLB RFO       ACCESS:          0  HIT:          0  MISS:          0
cpu0_ITLB PREFETCH  ACCESS:          0  HIT:          0  MISS:          0
cpu0_ITLB WRITEBACK ACCESS:          0  HIT:          0  MISS:          0
cpu0_ITLB TRANSLATION ACCESS:          0  HIT:          0  MISS:          0
cpu0_ITLB PREFETCH  REQUESTED:          0  ISSUED:          0  USEFUL:          0  USELESS:          0
cpu0_ITLB AVERAGE MISS LATENCY: nan cycles
cpu0_L1I TOTAL     ACCESS:         19  HIT:         14  MISS:          5
cpu0_L1I LOAD      ACCESS:         19  HIT:         14  MISS:          5
cpu0_L1I RFO       ACCESS:          0  HIT:          0  MISS:          0
cpu0_L1I PREFETCH  ACCESS:          0  HIT:          0  MISS:          0
cpu0_L1I WRITEBACK ACCESS:          0  HIT:          0  MISS:          0
cpu0_L1I TRANSLATION ACCESS:          0  HIT:          0  MISS:          0
cpu0_L1I PREFETCH  REQUESTED:          0  ISSUED:          0  USEFUL:          0  USELESS:          0
cpu0_L1I AVERAGE MISS LATENCY: 194.2 cycles
cpu0_STLB TOTAL     ACCESS:   10821842  HIT:    9710579  MISS:    1111263
cpu0_STLB LOAD      ACCESS:   10454636  HIT:    9350137  MISS:    1104499
cpu0_STLB RFO       ACCESS:     367206  HIT:     360442  MISS:       6764
cpu0_STLB PREFETCH  ACCESS:          0  HIT:          0  MISS:          0
cpu0_STLB WRITEBACK ACCESS:          0  HIT:          0  MISS:          0
cpu0_STLB TRANSLATION ACCESS:          0  HIT:          0  MISS:          0
cpu0_STLB PREFETCH  REQUESTED:          0  ISSUED:          0  USEFUL:          0  USELESS:          0
cpu0_STLB AVERAGE MISS LATENCY: 26.0039 cycles
cpu0_L1D TOTAL     ACCESS:   27615416  HIT:   14072241  MISS:   13543175
cpu0_L1D LOAD      ACCESS:   22268761  HIT:    9099405  MISS:   13169356
cpu0_L1D RFO       ACCESS:    4239284  HIT:    4034291  MISS:     204993
cpu0_L1D PREFETCH  ACCESS:          0  HIT:          0  MISS:          0
cpu0_L1D WRITEBACK ACCESS:          0  HIT:          0  MISS:          0
cpu0_L1D TRANSLATION ACCESS:    1107371  HIT:     938545  MISS:     168826
cpu0_L1D PREFETCH  REQUESTED:          0  ISSUED:          0  USEFUL:          0  USELESS:          0
cpu0_L1D AVERAGE MISS LATENCY: 158.5 cycles
cpu0_L2C TOTAL     ACCESS:   15651396  HIT:    6141464  MISS:    9509932
cpu0_L2C LOAD      ACCESS:   13168975  HIT:    3840782  MISS:    9328193
cpu0_L2C RFO       ACCESS:     204988  HIT:      71801  MISS:     133187
cpu0_L2C PREFETCH  ACCESS:          0  HIT:          0  MISS:          0
cpu0_L2C WRITEBACK ACCESS:    2108607  HIT:    2108352  MISS:        255
cpu0_L2C TRANSLATION ACCESS:     168826  HIT:     120529  MISS:      48297
cpu0_L2C PREFETCH  REQUESTED:          0  ISSUED:          0  USEFUL:          0  USELESS:          0
cpu0_L2C AVERAGE MISS LATENCY: 209.983 cycles
LLC TOTAL     ACCESS:   11014534  HIT:    4447922  MISS:    6566612
LLC LOAD      ACCESS:    9328193  HIT:    3567098  MISS:    5761095
LLC RFO       ACCESS:     133187  HIT:      67763  MISS:      65424
LLC PREFETCH  ACCESS:          0  HIT:          0  MISS:          0
LLC WRITEBACK ACCESS:    1504857  HIT:     797293  MISS:     707564
LLC TRANSLATION ACCESS:      48297  HIT:      15768  MISS:      32529
LLC PREFETCH  REQUESTED:          0  ISSUED:          0  USEFUL:          0  USELESS:          0
LLC AVERAGE MISS LATENCY: 273.69 cycles
OPTgen accesses: 169988
OPTgen hits: 49319
OPTgen hit rate: 29.0132



DRAM Statistics
 CHANNEL 0
 RQ ROW_BUFFER_HIT:      15790  ROW_BUFFER_MISS:    5842687
 DBUS AVG_CONGESTED_CYCLE:     3.9596
 WQ ROW_BUFFER_HIT:      42882  ROW_BUFFER_MISS:     849222  FULL:          0


CPU 0 Branch Prediction Accuracy: 85.5988% MPKI: 40.2398 Average ROB Occupancy at Mispredict: 17.1774
Branch type MPKI
BRANCH_DIRECT_JUMP: 4e-05
BRANCH_INDIRECT: 0
BRANCH_CONDITIONAL: 40.2397
BRANCH_DIRECT_CALL: 0
BRANCH_INDIRECT_CALL: 0
BRANCH_RETURN: 0

