
*** ChampSim Multicore Out-of-Order Simulator ***

Warmup Instructions: 10000000
Simulation Instructions: 100000000
Number of CPUs: 1
Off-chip DRAM Size: 4 GiB Channels: 1 Width: 64-bit Data Rate: 3200 MT/s

VirtualMemory physical capacity: 8588881920 num_ppages: 2096895
VirtualMemory page size: 4096 log2_page_size: 12

CPU 0 runs /Users/raghavprasad/brandon/Homework2/traces/milc_360B.trace.xz
CPU 0 Bimodal branch predictor
Basic BTB sets: 1024 ways: 8 indirect buffer size: 4096 RAS size: 64
Initialize Hawkeye state
Heartbeat CPU 0 instructions: 10000001 cycles: 2500103 heartbeat IPC: 3.99984 cumulative IPC: 3.99984 (Simulation time: 0 hr 0 min 49 sec) 

Warmup complete CPU 0 instructions: 10000001 cycles: 2500103 (Simulation time: 0 hr 0 min 49 sec) 

Heartbeat CPU 0 instructions: 20000000 cycles: 20051581 heartbeat IPC: 0.569753 cumulative IPC: 0.569753 (Simulation time: 0 hr 3 min 51 sec) 
Heartbeat CPU 0 instructions: 30000004 cycles: 37563083 heartbeat IPC: 0.571053 cumulative IPC: 0.570402 (Simulation time: 0 hr 6 min 54 sec) 
Heartbeat CPU 0 instructions: 40000001 cycles: 55097057 heartbeat IPC: 0.570321 cumulative IPC: 0.570375 (Simulation time: 0 hr 10 min 2 sec) 
Heartbeat CPU 0 instructions: 50000001 cycles: 75924923 heartbeat IPC: 0.480126 cumulative IPC: 0.544775 (Simulation time: 0 hr 14 min 9 sec) 
Heartbeat CPU 0 instructions: 60000000 cycles: 95042895 heartbeat IPC: 0.523068 cumulative IPC: 0.540291 (Simulation time: 0 hr 17 min 11 sec) 
Heartbeat CPU 0 instructions: 70000000 cycles: 114819145 heartbeat IPC: 0.505657 cumulative IPC: 0.534193 (Simulation time: 0 hr 20 min 8 sec) 
Heartbeat CPU 0 instructions: 80000000 cycles: 131995292 heartbeat IPC: 0.582203 cumulative IPC: 0.540561 (Simulation time: 0 hr 22 min 39 sec) 
Heartbeat CPU 0 instructions: 90000000 cycles: 148182114 heartbeat IPC: 0.617786 cumulative IPC: 0.549141 (Simulation time: 0 hr 25 min 13 sec) 
Heartbeat CPU 0 instructions: 100000002 cycles: 164436398 heartbeat IPC: 0.615223 cumulative IPC: 0.555774 (Simulation time: 0 hr 27 min 40 sec) 
Heartbeat CPU 0 instructions: 110000003 cycles: 180753320 heartbeat IPC: 0.612861 cumulative IPC: 0.561 (Simulation time: 0 hr 30 min 1 sec) 
Finished CPU 0 instructions: 100000002 cycles: 178253217 cumulative IPC: 0.561 (Simulation time: 0 hr 30 min 1 sec) 

ChampSim completed all CPUs

Region of Interest Statistics

CPU 0 cumulative IPC: 0.561 instructions: 100000002 cycles: 178253217
cpu0_DTLB TOTAL     ACCESS:   15527669  HIT:   15312930  MISS:     214739
cpu0_DTLB LOAD      ACCESS:    9085983  HIT:    8873459  MISS:     212524
cpu0_DTLB RFO       ACCESS:    6441686  HIT:    6439471  MISS:       2215
cpu0_DTLB PREFETCH  ACCESS:          0  HIT:          0  MISS:          0
cpu0_DTLB WRITEBACK ACCESS:          0  HIT:          0  MISS:          0
cpu0_DTLB TRANSLATION ACCESS:          0  HIT:          0  MISS:          0
cpu0_DTLB PREFETCH  REQUESTED:          0  ISSUED:          0  USEFUL:          0  USELESS:          0
cpu0_DTLB AVERAGE MISS LATENCY: 83.6672 cycles
cpu0_ITLB TOTAL     ACCESS:    2730847  HIT:    2730844  MISS:          3
cpu0_ITLB LOAD      ACCESS:    2730847  HIT:    2730844  MISS:          3
cpu0_ITLB RFO       ACCESS:          0  HIT:          0  MISS:          0
cpu0_ITLB PREFETCH  ACCESS:          0  HIT:          0  MISS:          0
cpu0_ITLB WRITEBACK ACCESS:          0  HIT:          0  MISS:          0
cpu0_ITLB TRANSLATION ACCESS:          0  HIT:          0  MISS:          0
cpu0_ITLB PREFETCH  REQUESTED:          0  ISSUED:          0  USEFUL:          0  USELESS:          0
cpu0_ITLB AVERAGE MISS LATENCY: 412 cycles
cpu0_L1I TOTAL     ACCESS:    6937999  HIT:    6937971  MISS:         28
cpu0_L1I LOAD      ACCESS:    6937999  HIT:    6937971  MISS:         28
cpu0_L1I RFO       ACCESS:          0  HIT:          0  MISS:          0
cpu0_L1I PREFETCH  ACCESS:          0  HIT:          0  MISS:          0
cpu0_L1I WRITEBACK ACCESS:          0  HIT:          0  MISS:          0
cpu0_L1I TRANSLATION ACCESS:          0  HIT:          0  MISS:          0
cpu0_L1I PREFETCH  REQUESTED:          0  ISSUED:          0  USEFUL:          0  USELESS:          0
cpu0_L1I AVERAGE MISS LATENCY: 244.75 cycles
cpu0_STLB TOTAL     ACCESS:     214742  HIT:        119  MISS:     214623
cpu0_STLB LOAD      ACCESS:     212527  HIT:         93  MISS:     212434
cpu0_STLB RFO       ACCESS:       2215  HIT:         26  MISS:       2189
cpu0_STLB PREFETCH  ACCESS:          0  HIT:          0  MISS:          0
cpu0_STLB WRITEBACK ACCESS:          0  HIT:          0  MISS:          0
cpu0_STLB TRANSLATION ACCESS:          0  HIT:          0  MISS:          0
cpu0_STLB PREFETCH  REQUESTED:          0  ISSUED:          0  USEFUL:          0  USELESS:          0
cpu0_STLB AVERAGE MISS LATENCY: 74.7119 cycles
cpu0_L1D TOTAL     ACCESS:   24605827  HIT:   22509436  MISS:    2096391
cpu0_L1D LOAD      ACCESS:    6429106  HIT:    4473108  MISS:    1955998
cpu0_L1D RFO       ACCESS:   17962540  HIT:   17822531  MISS:     140009
cpu0_L1D PREFETCH  ACCESS:          0  HIT:          0  MISS:          0
cpu0_L1D WRITEBACK ACCESS:          0  HIT:          0  MISS:          0
cpu0_L1D TRANSLATION ACCESS:     214181  HIT:     213797  MISS:        384
cpu0_L1D PREFETCH  REQUESTED:          0  ISSUED:          0  USEFUL:          0  USELESS:          0
cpu0_L1D AVERAGE MISS LATENCY: 340.503 cycles
cpu0_L2C TOTAL     ACCESS:    2839086  HIT:     742665  MISS:    2096421
cpu0_L2C LOAD      ACCESS:    1956026  HIT:          1  MISS:    1956025
cpu0_L2C RFO       ACCESS:     140009  HIT:          0  MISS:     140009
cpu0_L2C PREFETCH  ACCESS:          0  HIT:          0  MISS:          0
cpu0_L2C WRITEBACK ACCESS:     742667  HIT:     742660  MISS:          7
cpu0_L2C TRANSLATION ACCESS:        384  HIT:          4  MISS:        380
cpu0_L2C PREFETCH  REQUESTED:          0  ISSUED:          0  USEFUL:          0  USELESS:          0
cpu0_L2C AVERAGE MISS LATENCY: 329.4 cycles
LLC TOTAL     ACCESS:    2839077  HIT:      63901  MISS:    2775176
LLC LOAD      ACCESS:    1956025  HIT:      14715  MISS:    1941310
LLC RFO       ACCESS:     140009  HIT:        233  MISS:     139776
LLC PREFETCH  ACCESS:          0  HIT:          0  MISS:          0
LLC WRITEBACK ACCESS:     742663  HIT:      48892  MISS:     693771
LLC TRANSLATION ACCESS:        380  HIT:         61  MISS:        319
LLC PREFETCH  REQUESTED:          0  ISSUED:          0  USEFUL:          0  USELESS:          0
LLC AVERAGE MISS LATENCY: 232.971 cycles
OPTgen accesses: 35186
OPTgen hits: 155
OPTgen hit rate: 0.440516



DRAM Statistics
 CHANNEL 0
 RQ ROW_BUFFER_HIT:     359284  ROW_BUFFER_MISS:    1722118
 DBUS AVG_CONGESTED_CYCLE:    3.94664
 WQ ROW_BUFFER_HIT:      40296  ROW_BUFFER_MISS:     690908  FULL:          0


CPU 0 Branch Prediction Accuracy: 99.9991% MPKI: 0.00037 Average ROB Occupancy at Mispredict: 88.0541
Branch type MPKI
BRANCH_DIRECT_JUMP: 4e-05
BRANCH_INDIRECT: 0
BRANCH_CONDITIONAL: 0.00015
BRANCH_DIRECT_CALL: 9e-05
BRANCH_INDIRECT_CALL: 0
BRANCH_RETURN: 9e-05

