
*** ChampSim Multicore Out-of-Order Simulator ***

Warmup Instructions: 10000000
Simulation Instructions: 100000000
Number of CPUs: 1
Off-chip DRAM Size: 4 GiB Channels: 1 Width: 64-bit Data Rate: 3200 MT/s

VirtualMemory physical capacity: 8588881920 num_ppages: 2096895
VirtualMemory page size: 4096 log2_page_size: 12

CPU 0 runs /Users/raghavprasad/brandon/Homework2/traces/omnetpp_340B.trace.xz
CPU 0 Bimodal branch predictor
Basic BTB sets: 1024 ways: 8 indirect buffer size: 4096 RAS size: 64
Initialize Hawkeye state
Heartbeat CPU 0 instructions: 10000002 cycles: 2500207 heartbeat IPC: 3.99967 cumulative IPC: 3.99967 (Simulation time: 0 hr 0 min 41 sec) 

Warmup complete CPU 0 instructions: 10000002 cycles: 2500207 (Simulation time: 0 hr 0 min 41 sec) 

Heartbeat CPU 0 instructions: 20000000 cycles: 27853387 heartbeat IPC: 0.394428 cumulative IPC: 0.394428 (Simulation time: 0 hr 2 min 2 sec) 
Heartbeat CPU 0 instructions: 30000002 cycles: 52882021 heartbeat IPC: 0.399542 cumulative IPC: 0.396969 (Simulation time: 0 hr 3 min 27 sec) 
Heartbeat CPU 0 instructions: 40000000 cycles: 77732337 heartbeat IPC: 0.402409 cumulative IPC: 0.398766 (Simulation time: 0 hr 4 min 52 sec) 
Heartbeat CPU 0 instructions: 50000002 cycles: 103313529 heartbeat IPC: 0.390912 cumulative IPC: 0.396773 (Simulation time: 0 hr 6 min 15 sec) 
Heartbeat CPU 0 instructions: 60000001 cycles: 130464014 heartbeat IPC: 0.368318 cumulative IPC: 0.390735 (Simulation time: 0 hr 7 min 41 sec) 
Heartbeat CPU 0 instructions: 70000002 cycles: 156725720 heartbeat IPC: 0.380783 cumulative IPC: 0.389041 (Simulation time: 0 hr 8 min 53 sec) 
Heartbeat CPU 0 instructions: 80000003 cycles: 183617303 heartbeat IPC: 0.371864 cumulative IPC: 0.38649 (Simulation time: 0 hr 10 min 17 sec) 
Heartbeat CPU 0 instructions: 90000000 cycles: 209632271 heartbeat IPC: 0.384394 cumulative IPC: 0.386227 (Simulation time: 0 hr 11 min 35 sec) 
Heartbeat CPU 0 instructions: 100000000 cycles: 237613532 heartbeat IPC: 0.357382 cumulative IPC: 0.382794 (Simulation time: 0 hr 13 min 14 sec) 
Heartbeat CPU 0 instructions: 110000000 cycles: 263178601 heartbeat IPC: 0.391159 cumulative IPC: 0.383614 (Simulation time: 0 hr 14 min 45 sec) 
Finished CPU 0 instructions: 100000000 cycles: 260678396 cumulative IPC: 0.383614 (Simulation time: 0 hr 14 min 45 sec) 

ChampSim completed all CPUs

Region of Interest Statistics

CPU 0 cumulative IPC: 0.383614 instructions: 100000000 cycles: 260678396
cpu0_DTLB TOTAL     ACCESS:   23840078  HIT:   21942860  MISS:    1897218
cpu0_DTLB LOAD      ACCESS:   13869126  HIT:   12287864  MISS:    1581262
cpu0_DTLB RFO       ACCESS:    9970952  HIT:    9654996  MISS:     315956
cpu0_DTLB PREFETCH  ACCESS:          0  HIT:          0  MISS:          0
cpu0_DTLB WRITEBACK ACCESS:          0  HIT:          0  MISS:          0
cpu0_DTLB TRANSLATION ACCESS:          0  HIT:          0  MISS:          0
cpu0_DTLB PREFETCH  REQUESTED:          0  ISSUED:          0  USEFUL:          0  USELESS:          0
cpu0_DTLB AVERAGE MISS LATENCY: 13.1716 cycles
cpu0_ITLB TOTAL     ACCESS:   11128463  HIT:   11093096  MISS:      35367
cpu0_ITLB LOAD      ACCESS:   11128463  HIT:   11093096  MISS:      35367
cpu0_ITLB RFO       ACCESS:          0  HIT:          0  MISS:          0
cpu0_ITLB PREFETCH  ACCESS:          0  HIT:          0  MISS:          0
cpu0_ITLB WRITEBACK ACCESS:          0  HIT:          0  MISS:          0
cpu0_ITLB TRANSLATION ACCESS:          0  HIT:          0  MISS:          0
cpu0_ITLB PREFETCH  REQUESTED:          0  ISSUED:          0  USEFUL:          0  USELESS:          0
cpu0_ITLB AVERAGE MISS LATENCY: 9.26058 cycles
cpu0_L1I TOTAL     ACCESS:    8347841  HIT:    8341486  MISS:       6355
cpu0_L1I LOAD      ACCESS:    8347841  HIT:    8341486  MISS:       6355
cpu0_L1I RFO       ACCESS:          0  HIT:          0  MISS:          0
cpu0_L1I PREFETCH  ACCESS:          0  HIT:          0  MISS:          0
cpu0_L1I WRITEBACK ACCESS:          0  HIT:          0  MISS:          0
cpu0_L1I TRANSLATION ACCESS:          0  HIT:          0  MISS:          0
cpu0_L1I PREFETCH  REQUESTED:          0  ISSUED:          0  USEFUL:          0  USELESS:          0
cpu0_L1I AVERAGE MISS LATENCY: 49.5224 cycles
cpu0_STLB TOTAL     ACCESS:    1932585  HIT:    1457389  MISS:     475196
cpu0_STLB LOAD      ACCESS:    1616629  HIT:    1262715  MISS:     353914
cpu0_STLB RFO       ACCESS:     315956  HIT:     194674  MISS:     121282
cpu0_STLB PREFETCH  ACCESS:          0  HIT:          0  MISS:          0
cpu0_STLB WRITEBACK ACCESS:          0  HIT:          0  MISS:          0
cpu0_STLB TRANSLATION ACCESS:          0  HIT:          0  MISS:          0
cpu0_STLB PREFETCH  REQUESTED:          0  ISSUED:          0  USEFUL:          0  USELESS:          0
cpu0_STLB AVERAGE MISS LATENCY: 16.2037 cycles
cpu0_L1D TOTAL     ACCESS:   31422137  HIT:   28924245  MISS:    2497892
cpu0_L1D LOAD      ACCESS:   15698495  HIT:   13515506  MISS:    2182989
cpu0_L1D RFO       ACCESS:   15283265  HIT:   14972869  MISS:     310396
cpu0_L1D PREFETCH  ACCESS:          0  HIT:          0  MISS:          0
cpu0_L1D WRITEBACK ACCESS:          0  HIT:          0  MISS:          0
cpu0_L1D TRANSLATION ACCESS:     440377  HIT:     435870  MISS:       4507
cpu0_L1D PREFETCH  REQUESTED:          0  ISSUED:          0  USEFUL:          0  USELESS:          0
cpu0_L1D AVERAGE MISS LATENCY: 148.494 cycles
cpu0_L2C TOTAL     ACCESS:    3581308  HIT:    1431222  MISS:    2150086
cpu0_L2C LOAD      ACCESS:    2189305  HIT:     331212  MISS:    1858093
cpu0_L2C RFO       ACCESS:     310396  HIT:      21911  MISS:     288485
cpu0_L2C PREFETCH  ACCESS:          0  HIT:          0  MISS:          0
cpu0_L2C WRITEBACK ACCESS:    1077100  HIT:    1074791  MISS:       2309
cpu0_L2C TRANSLATION ACCESS:       4507  HIT:       3308  MISS:       1199
cpu0_L2C PREFETCH  REQUESTED:          0  ISSUED:          0  USEFUL:          0  USELESS:          0
cpu0_L2C AVERAGE MISS LATENCY: 159.692 cycles
LLC TOTAL     ACCESS:    3079426  HIT:     925392  MISS:    2154034
LLC LOAD      ACCESS:    1858093  HIT:     400612  MISS:    1457481
LLC RFO       ACCESS:     288484  HIT:      64194  MISS:     224290
LLC PREFETCH  ACCESS:          0  HIT:          0  MISS:          0
LLC WRITEBACK ACCESS:     931650  HIT:     459888  MISS:     471762
LLC TRANSLATION ACCESS:       1199  HIT:        698  MISS:        501
LLC PREFETCH  REQUESTED:          0  ISSUED:          0  USEFUL:          0  USELESS:          0
LLC AVERAGE MISS LATENCY: 138.46 cycles
OPTgen accesses: 35874
OPTgen hits: 10913
OPTgen hit rate: 30.4204



DRAM Statistics
 CHANNEL 0
 RQ ROW_BUFFER_HIT:      84100  ROW_BUFFER_MISS:    1597996
 DBUS AVG_CONGESTED_CYCLE:    3.92605
 WQ ROW_BUFFER_HIT:     159897  ROW_BUFFER_MISS:     595036  FULL:          0


CPU 0 Branch Prediction Accuracy: 94.4212% MPKI: 13.4017 Average ROB Occupancy at Mispredict: 52.7535
Branch type MPKI
BRANCH_DIRECT_JUMP: 0.00017
BRANCH_INDIRECT: 0.04543
BRANCH_CONDITIONAL: 13.2857
BRANCH_DIRECT_CALL: 8e-05
BRANCH_INDIRECT_CALL: 0.04734
BRANCH_RETURN: 0.02301

