
*** ChampSim Multicore Out-of-Order Simulator ***

Warmup Instructions: 10000000
Simulation Instructions: 100000000
Number of CPUs: 1
Off-chip DRAM Size: 4 GiB Channels: 1 Width: 64-bit Data Rate: 3200 MT/s

VirtualMemory physical capacity: 8588881920 num_ppages: 2096895
VirtualMemory page size: 4096 log2_page_size: 12

CPU 0 runs /Users/raghavprasad/brandon/Homework2/traces/perlbench_53B.trace.xz
CPU 0 Bimodal branch predictor
Basic BTB sets: 1024 ways: 8 indirect buffer size: 4096 RAS size: 64
Initialize Hawkeye state
Heartbeat CPU 0 instructions: 10000000 cycles: 2503726 heartbeat IPC: 3.99405 cumulative IPC: 3.99405 (Simulation time: 0 hr 0 min 41 sec) 

Warmup complete CPU 0 instructions: 10000004 cycles: 2503727 (Simulation time: 0 hr 0 min 41 sec) 

Heartbeat CPU 0 instructions: 20000001 cycles: 15188509 heartbeat IPC: 0.788346 cumulative IPC: 0.788346 (Simulation time: 0 hr 1 min 22 sec) 
Heartbeat CPU 0 instructions: 30000001 cycles: 25219219 heartbeat IPC: 0.996938 cumulative IPC: 0.880456 (Simulation time: 0 hr 2 min 5 sec) 
Heartbeat CPU 0 instructions: 40000004 cycles: 37241519 heartbeat IPC: 0.831788 cumulative IPC: 0.863613 (Simulation time: 0 hr 2 min 45 sec) 
Heartbeat CPU 0 instructions: 50000001 cycles: 48451637 heartbeat IPC: 0.892051 cumulative IPC: 0.870551 (Simulation time: 0 hr 3 min 24 sec) 
Heartbeat CPU 0 instructions: 60000004 cycles: 61491020 heartbeat IPC: 0.766908 cumulative IPC: 0.84764 (Simulation time: 0 hr 4 min 5 sec) 
Heartbeat CPU 0 instructions: 70000004 cycles: 75286129 heartbeat IPC: 0.724895 cumulative IPC: 0.824375 (Simulation time: 0 hr 4 min 50 sec) 
Heartbeat CPU 0 instructions: 80000004 cycles: 88961175 heartbeat IPC: 0.731259 cumulative IPC: 0.809647 (Simulation time: 0 hr 5 min 38 sec) 
Heartbeat CPU 0 instructions: 90000001 cycles: 101676965 heartbeat IPC: 0.786424 cumulative IPC: 0.806669 (Simulation time: 0 hr 6 min 24 sec) 
Heartbeat CPU 0 instructions: 100000003 cycles: 115486987 heartbeat IPC: 0.724112 cumulative IPC: 0.796578 (Simulation time: 0 hr 7 min 16 sec) 
Heartbeat CPU 0 instructions: 110000002 cycles: 127675936 heartbeat IPC: 0.820415 cumulative IPC: 0.798899 (Simulation time: 0 hr 8 min 2 sec) 
Finished CPU 0 instructions: 100000000 cycles: 125172210 cumulative IPC: 0.798899 (Simulation time: 0 hr 8 min 2 sec) 

ChampSim completed all CPUs

Region of Interest Statistics

CPU 0 cumulative IPC: 0.798899 instructions: 100000000 cycles: 125172210
cpu0_DTLB TOTAL     ACCESS:   24815394  HIT:   24162816  MISS:     652578
cpu0_DTLB LOAD      ACCESS:   16194037  HIT:   15632308  MISS:     561729
cpu0_DTLB RFO       ACCESS:    8621357  HIT:    8530508  MISS:      90849
cpu0_DTLB PREFETCH  ACCESS:          0  HIT:          0  MISS:          0
cpu0_DTLB WRITEBACK ACCESS:          0  HIT:          0  MISS:          0
cpu0_DTLB TRANSLATION ACCESS:          0  HIT:          0  MISS:          0
cpu0_DTLB PREFETCH  REQUESTED:          0  ISSUED:          0  USEFUL:          0  USELESS:          0
cpu0_DTLB AVERAGE MISS LATENCY: 9.25648 cycles
cpu0_ITLB TOTAL     ACCESS:    8011031  HIT:    7934446  MISS:      76585
cpu0_ITLB LOAD      ACCESS:    8011031  HIT:    7934446  MISS:      76585
cpu0_ITLB RFO       ACCESS:          0  HIT:          0  MISS:          0
cpu0_ITLB PREFETCH  ACCESS:          0  HIT:          0  MISS:          0
cpu0_ITLB WRITEBACK ACCESS:          0  HIT:          0  MISS:          0
cpu0_ITLB TRANSLATION ACCESS:          0  HIT:          0  MISS:          0
cpu0_ITLB PREFETCH  REQUESTED:          0  ISSUED:          0  USEFUL:          0  USELESS:          0
cpu0_ITLB AVERAGE MISS LATENCY: 9.11138 cycles
cpu0_L1I TOTAL     ACCESS:   11821005  HIT:   11144819  MISS:     676186
cpu0_L1I LOAD      ACCESS:   11821005  HIT:   11144819  MISS:     676186
cpu0_L1I RFO       ACCESS:          0  HIT:          0  MISS:          0
cpu0_L1I PREFETCH  ACCESS:          0  HIT:          0  MISS:          0
cpu0_L1I WRITEBACK ACCESS:          0  HIT:          0  MISS:          0
cpu0_L1I TRANSLATION ACCESS:          0  HIT:          0  MISS:          0
cpu0_L1I PREFETCH  REQUESTED:          0  ISSUED:          0  USEFUL:          0  USELESS:          0
cpu0_L1I AVERAGE MISS LATENCY: 12.0845 cycles
cpu0_STLB TOTAL     ACCESS:     729163  HIT:     723350  MISS:       5813
cpu0_STLB LOAD      ACCESS:     638314  HIT:     633197  MISS:       5117
cpu0_STLB RFO       ACCESS:      90849  HIT:      90153  MISS:        696
cpu0_STLB PREFETCH  ACCESS:          0  HIT:          0  MISS:          0
cpu0_STLB WRITEBACK ACCESS:          0  HIT:          0  MISS:          0
cpu0_STLB TRANSLATION ACCESS:          0  HIT:          0  MISS:          0
cpu0_STLB PREFETCH  REQUESTED:          0  ISSUED:          0  USEFUL:          0  USELESS:          0
cpu0_STLB AVERAGE MISS LATENCY: 29.5073 cycles
cpu0_L1D TOTAL     ACCESS:   31988830  HIT:   31031087  MISS:     957743
cpu0_L1D LOAD      ACCESS:   17001483  HIT:   16128750  MISS:     872733
cpu0_L1D RFO       ACCESS:   14981576  HIT:   14897842  MISS:      83734
cpu0_L1D PREFETCH  ACCESS:          0  HIT:          0  MISS:          0
cpu0_L1D WRITEBACK ACCESS:          0  HIT:          0  MISS:          0
cpu0_L1D TRANSLATION ACCESS:       5771  HIT:       4495  MISS:       1276
cpu0_L1D PREFETCH  REQUESTED:          0  ISSUED:          0  USEFUL:          0  USELESS:          0
cpu0_L1D AVERAGE MISS LATENCY: 16.8295 cycles
cpu0_L2C TOTAL     ACCESS:    1881684  HIT:    1714286  MISS:     167398
cpu0_L2C LOAD      ACCESS:    1548905  HIT:    1403201  MISS:     145704
cpu0_L2C RFO       ACCESS:      83728  HIT:      62533  MISS:      21195
cpu0_L2C PREFETCH  ACCESS:          0  HIT:          0  MISS:          0
cpu0_L2C WRITEBACK ACCESS:     247775  HIT:     247342  MISS:        433
cpu0_L2C TRANSLATION ACCESS:       1276  HIT:       1210  MISS:         66
cpu0_L2C PREFETCH  REQUESTED:          0  ISSUED:          0  USEFUL:          0  USELESS:          0
cpu0_L2C AVERAGE MISS LATENCY: 37.5781 cycles
LLC TOTAL     ACCESS:     214315  HIT:     195258  MISS:      19057
LLC LOAD      ACCESS:     145704  HIT:     131896  MISS:      13808
LLC RFO       ACCESS:      21195  HIT:      16201  MISS:       4994
LLC PREFETCH  ACCESS:          0  HIT:          0  MISS:          0
LLC WRITEBACK ACCESS:      47350  HIT:      47095  MISS:        255
LLC TRANSLATION ACCESS:         66  HIT:         66  MISS:          0
LLC PREFETCH  REQUESTED:          0  ISSUED:          0  USEFUL:          0  USELESS:          0
LLC AVERAGE MISS LATENCY: 146.099 cycles
OPTgen accesses: 3349
OPTgen hits: 2698
OPTgen hit rate: 80.5614



DRAM Statistics
 CHANNEL 0
 RQ ROW_BUFFER_HIT:       3907  ROW_BUFFER_MISS:      14895
 DBUS AVG_CONGESTED_CYCLE:    3.86121
 WQ ROW_BUFFER_HIT:        930  ROW_BUFFER_MISS:       2641  FULL:          0


CPU 0 Branch Prediction Accuracy: 94.2848% MPKI: 12.6658 Average ROB Occupancy at Mispredict: 36.2748
Branch type MPKI
BRANCH_DIRECT_JUMP: 0.00232
BRANCH_INDIRECT: 0.81431
BRANCH_CONDITIONAL: 10.3853
BRANCH_DIRECT_CALL: 0.00236
BRANCH_INDIRECT_CALL: 1.44344
BRANCH_RETURN: 0.01802

