
*** ChampSim Multicore Out-of-Order Simulator ***

Warmup Instructions: 10000000
Simulation Instructions: 100000000
Number of CPUs: 1
Off-chip DRAM Size: 4 GiB Channels: 1 Width: 64-bit Data Rate: 3200 MT/s

VirtualMemory physical capacity: 8588881920 num_ppages: 2096895
VirtualMemory page size: 4096 log2_page_size: 12

CPU 0 runs /Users/raghavprasad/brandon/Homework2/traces/soplex_66B.trace.xz
CPU 0 Bimodal branch predictor
Basic BTB sets: 1024 ways: 8 indirect buffer size: 4096 RAS size: 64
Initialize Hawkeye state
Heartbeat CPU 0 instructions: 10000001 cycles: 2688382 heartbeat IPC: 3.71971 cumulative IPC: 3.71971 (Simulation time: 0 hr 0 min 27 sec) 

Warmup complete CPU 0 instructions: 10000001 cycles: 2688382 (Simulation time: 0 hr 0 min 27 sec) 

Heartbeat CPU 0 instructions: 20000003 cycles: 28278792 heartbeat IPC: 0.390771 cumulative IPC: 0.390771 (Simulation time: 0 hr 1 min 43 sec) 
Heartbeat CPU 0 instructions: 30000001 cycles: 53477728 heartbeat IPC: 0.396842 cumulative IPC: 0.393783 (Simulation time: 0 hr 3 min 4 sec) 
Heartbeat CPU 0 instructions: 40000002 cycles: 78998065 heartbeat IPC: 0.391844 cumulative IPC: 0.393135 (Simulation time: 0 hr 4 min 30 sec) 
Heartbeat CPU 0 instructions: 50000002 cycles: 113250660 heartbeat IPC: 0.291949 cumulative IPC: 0.361787 (Simulation time: 0 hr 6 min 47 sec) 
Heartbeat CPU 0 instructions: 60000002 cycles: 146919327 heartbeat IPC: 0.297012 cumulative IPC: 0.346666 (Simulation time: 0 hr 8 min 52 sec) 
Heartbeat CPU 0 instructions: 70000001 cycles: 174188136 heartbeat IPC: 0.366719 cumulative IPC: 0.349855 (Simulation time: 0 hr 10 min 36 sec) 
Heartbeat CPU 0 instructions: 80000001 cycles: 202642398 heartbeat IPC: 0.351441 cumulative IPC: 0.35008 (Simulation time: 0 hr 12 min 41 sec) 
Heartbeat CPU 0 instructions: 90000003 cycles: 228287337 heartbeat IPC: 0.389941 cumulative IPC: 0.354612 (Simulation time: 0 hr 14 min 18 sec) 
Heartbeat CPU 0 instructions: 100000000 cycles: 253512608 heartbeat IPC: 0.396428 cumulative IPC: 0.358817 (Simulation time: 0 hr 15 min 51 sec) 
Heartbeat CPU 0 instructions: 110000001 cycles: 279354926 heartbeat IPC: 0.386962 cumulative IPC: 0.361446 (Simulation time: 0 hr 17 min 36 sec) 
Finished CPU 0 instructions: 100000000 cycles: 276666544 cumulative IPC: 0.361446 (Simulation time: 0 hr 17 min 36 sec) 

ChampSim completed all CPUs

Region of Interest Statistics

CPU 0 cumulative IPC: 0.361446 instructions: 100000000 cycles: 276666544
cpu0_DTLB TOTAL     ACCESS:   19891428  HIT:   19313593  MISS:     577835
cpu0_DTLB LOAD      ACCESS:   14827199  HIT:   14369568  MISS:     457631
cpu0_DTLB RFO       ACCESS:    5064229  HIT:    4944025  MISS:     120204
cpu0_DTLB PREFETCH  ACCESS:          0  HIT:          0  MISS:          0
cpu0_DTLB WRITEBACK ACCESS:          0  HIT:          0  MISS:          0
cpu0_DTLB TRANSLATION ACCESS:          0  HIT:          0  MISS:          0
cpu0_DTLB PREFETCH  REQUESTED:          0  ISSUED:          0  USEFUL:          0  USELESS:          0
cpu0_DTLB AVERAGE MISS LATENCY: 16.3425 cycles
cpu0_ITLB TOTAL     ACCESS:    8266572  HIT:    8266554  MISS:         18
cpu0_ITLB LOAD      ACCESS:    8266572  HIT:    8266554  MISS:         18
cpu0_ITLB RFO       ACCESS:          0  HIT:          0  MISS:          0
cpu0_ITLB PREFETCH  ACCESS:          0  HIT:          0  MISS:          0
cpu0_ITLB WRITEBACK ACCESS:          0  HIT:          0  MISS:          0
cpu0_ITLB TRANSLATION ACCESS:          0  HIT:          0  MISS:          0
cpu0_ITLB PREFETCH  REQUESTED:          0  ISSUED:          0  USEFUL:          0  USELESS:          0
cpu0_ITLB AVERAGE MISS LATENCY: 190.167 cycles
cpu0_L1I TOTAL     ACCESS:    1900406  HIT:    1899545  MISS:        861
cpu0_L1I LOAD      ACCESS:    1900406  HIT:    1899545  MISS:        861
cpu0_L1I RFO       ACCESS:          0  HIT:          0  MISS:          0
cpu0_L1I PREFETCH  ACCESS:          0  HIT:          0  MISS:          0
cpu0_L1I WRITEBACK ACCESS:          0  HIT:          0  MISS:          0
cpu0_L1I TRANSLATION ACCESS:          0  HIT:          0  MISS:          0
cpu0_L1I PREFETCH  REQUESTED:          0  ISSUED:          0  USEFUL:          0  USELESS:          0
cpu0_L1I AVERAGE MISS LATENCY: 263.99 cycles
cpu0_STLB TOTAL     ACCESS:     577853  HIT:     474932  MISS:     102921
cpu0_STLB LOAD      ACCESS:     457649  HIT:     362558  MISS:      95091
cpu0_STLB RFO       ACCESS:     120204  HIT:     112374  MISS:       7830
cpu0_STLB PREFETCH  ACCESS:          0  HIT:          0  MISS:          0
cpu0_STLB WRITEBACK ACCESS:          0  HIT:          0  MISS:          0
cpu0_STLB TRANSLATION ACCESS:          0  HIT:          0  MISS:          0
cpu0_STLB PREFETCH  REQUESTED:          0  ISSUED:          0  USEFUL:          0  USELESS:          0
cpu0_STLB AVERAGE MISS LATENCY: 40.6669 cycles
cpu0_L1D TOTAL     ACCESS:   17102271  HIT:   12785274  MISS:    4316997
cpu0_L1D LOAD      ACCESS:   11114105  HIT:    7515842  MISS:    3598263
cpu0_L1D RFO       ACCESS:    5888062  HIT:    5171957  MISS:     716105
cpu0_L1D PREFETCH  ACCESS:          0  HIT:          0  MISS:          0
cpu0_L1D WRITEBACK ACCESS:          0  HIT:          0  MISS:          0
cpu0_L1D TRANSLATION ACCESS:     100104  HIT:      97475  MISS:       2629
cpu0_L1D PREFETCH  REQUESTED:          0  ISSUED:          0  USEFUL:          0  USELESS:          0
cpu0_L1D AVERAGE MISS LATENCY: 231.113 cycles
cpu0_L2C TOTAL     ACCESS:    6105325  HIT:    2614394  MISS:    3490931
cpu0_L2C LOAD      ACCESS:    3599000  HIT:     721673  MISS:    2877327
cpu0_L2C RFO       ACCESS:     716040  HIT:     103679  MISS:     612361
cpu0_L2C PREFETCH  ACCESS:          0  HIT:          0  MISS:          0
cpu0_L2C WRITEBACK ACCESS:    1787656  HIT:    1787101  MISS:        555
cpu0_L2C TRANSLATION ACCESS:       2629  HIT:       1941  MISS:        688
cpu0_L2C PREFETCH  REQUESTED:          0  ISSUED:          0  USEFUL:          0  USELESS:          0
cpu0_L2C AVERAGE MISS LATENCY: 272.068 cycles
LLC TOTAL     ACCESS:    4868035  HIT:    2266654  MISS:    2601381
LLC LOAD      ACCESS:    2877292  HIT:    1132647  MISS:    1744645
LLC RFO       ACCESS:     612355  HIT:     233778  MISS:     378577
LLC PREFETCH  ACCESS:          0  HIT:          0  MISS:          0
LLC WRITEBACK ACCESS:    1377700  HIT:     899729  MISS:     477971
LLC TRANSLATION ACCESS:        688  HIT:        500  MISS:        188
LLC PREFETCH  REQUESTED:          0  ISSUED:          0  USEFUL:          0  USELESS:          0
LLC AVERAGE MISS LATENCY: 335.56 cycles
OPTgen accesses: 59865
OPTgen hits: 22442
OPTgen hit rate: 37.4877



DRAM Statistics
 CHANNEL 0
 RQ ROW_BUFFER_HIT:     320651  ROW_BUFFER_MISS:    1801434
 DBUS AVG_CONGESTED_CYCLE:    3.95703
 WQ ROW_BUFFER_HIT:      65759  ROW_BUFFER_MISS:     798275  FULL:     842440


CPU 0 Branch Prediction Accuracy: 91.9788% MPKI: 17.5693 Average ROB Occupancy at Mispredict: 27.8244
Branch type MPKI
BRANCH_DIRECT_JUMP: 0.00093
BRANCH_INDIRECT: 0.00028
BRANCH_CONDITIONAL: 17.5659
BRANCH_DIRECT_CALL: 0.00064
BRANCH_INDIRECT_CALL: 0.00043
BRANCH_RETURN: 0.00108

