
*** ChampSim Multicore Out-of-Order Simulator ***

Warmup Instructions: 10000000
Simulation Instructions: 100000000
Number of CPUs: 1
Off-chip DRAM Size: 4 GiB Channels: 1 Width: 64-bit Data Rate: 3200 MT/s

VirtualMemory physical capacity: 8588881920 num_ppages: 2096895
VirtualMemory page size: 4096 log2_page_size: 12

CPU 0 runs /Users/raghavprasad/brandon/Homework2/traces/soplex_217B.trace.xz
CPU 0 Bimodal branch predictor
Basic BTB sets: 1024 ways: 8 indirect buffer size: 4096 RAS size: 64
Initialize Hawkeye state
Heartbeat CPU 0 instructions: 10000000 cycles: 2844522 heartbeat IPC: 3.51553 cumulative IPC: 3.51553 (Simulation time: 0 hr 0 min 30 sec) 

Warmup complete CPU 0 instructions: 10000004 cycles: 2844523 (Simulation time: 0 hr 0 min 30 sec) 

Heartbeat CPU 0 instructions: 20000000 cycles: 36286544 heartbeat IPC: 0.299025 cumulative IPC: 0.299025 (Simulation time: 0 hr 2 min 8 sec) 
Heartbeat CPU 0 instructions: 30000004 cycles: 66611080 heartbeat IPC: 0.329766 cumulative IPC: 0.313644 (Simulation time: 0 hr 3 min 58 sec) 
Heartbeat CPU 0 instructions: 40000003 cycles: 98774562 heartbeat IPC: 0.310912 cumulative IPC: 0.312728 (Simulation time: 0 hr 5 min 49 sec) 
Heartbeat CPU 0 instructions: 50000000 cycles: 128417262 heartbeat IPC: 0.337351 cumulative IPC: 0.31854 (Simulation time: 0 hr 7 min 46 sec) 
Heartbeat CPU 0 instructions: 60000002 cycles: 159537668 heartbeat IPC: 0.321333 cumulative IPC: 0.319095 (Simulation time: 0 hr 9 min 48 sec) 
Heartbeat CPU 0 instructions: 70000000 cycles: 204232388 heartbeat IPC: 0.22374 cumulative IPC: 0.297933 (Simulation time: 0 hr 12 min 33 sec) 
Heartbeat CPU 0 instructions: 80000000 cycles: 235999510 heartbeat IPC: 0.314791 cumulative IPC: 0.300229 (Simulation time: 0 hr 14 min 5 sec) 
Heartbeat CPU 0 instructions: 90000002 cycles: 264727039 heartbeat IPC: 0.348098 cumulative IPC: 0.30548 (Simulation time: 0 hr 16 min 9 sec) 
Heartbeat CPU 0 instructions: 100000003 cycles: 297593133 heartbeat IPC: 0.304265 cumulative IPC: 0.305345 (Simulation time: 0 hr 18 min 33 sec) 
Heartbeat CPU 0 instructions: 110000000 cycles: 326429064 heartbeat IPC: 0.346789 cumulative IPC: 0.309038 (Simulation time: 0 hr 20 min 14 sec) 
Finished CPU 0 instructions: 100000000 cycles: 323584543 cumulative IPC: 0.309038 (Simulation time: 0 hr 20 min 14 sec) 

ChampSim completed all CPUs

Region of Interest Statistics

CPU 0 cumulative IPC: 0.309038 instructions: 100000000 cycles: 323584543
cpu0_DTLB TOTAL     ACCESS:   21846446  HIT:   20980522  MISS:     865924
cpu0_DTLB LOAD      ACCESS:   16693125  HIT:   16008360  MISS:     684765
cpu0_DTLB RFO       ACCESS:    5153321  HIT:    4972162  MISS:     181159
cpu0_DTLB PREFETCH  ACCESS:          0  HIT:          0  MISS:          0
cpu0_DTLB WRITEBACK ACCESS:          0  HIT:          0  MISS:          0
cpu0_DTLB TRANSLATION ACCESS:          0  HIT:          0  MISS:          0
cpu0_DTLB PREFETCH  REQUESTED:          0  ISSUED:          0  USEFUL:          0  USELESS:          0
cpu0_DTLB AVERAGE MISS LATENCY: 14.7328 cycles
cpu0_ITLB TOTAL     ACCESS:    8489113  HIT:    8489095  MISS:         18
cpu0_ITLB LOAD      ACCESS:    8489113  HIT:    8489095  MISS:         18
cpu0_ITLB RFO       ACCESS:          0  HIT:          0  MISS:          0
cpu0_ITLB PREFETCH  ACCESS:          0  HIT:          0  MISS:          0
cpu0_ITLB WRITEBACK ACCESS:          0  HIT:          0  MISS:          0
cpu0_ITLB TRANSLATION ACCESS:          0  HIT:          0  MISS:          0
cpu0_ITLB PREFETCH  REQUESTED:          0  ISSUED:          0  USEFUL:          0  USELESS:          0
cpu0_ITLB AVERAGE MISS LATENCY: 359.556 cycles
cpu0_L1I TOTAL     ACCESS:     355349  HIT:     354696  MISS:        653
cpu0_L1I LOAD      ACCESS:     355349  HIT:     354696  MISS:        653
cpu0_L1I RFO       ACCESS:          0  HIT:          0  MISS:          0
cpu0_L1I PREFETCH  ACCESS:          0  HIT:          0  MISS:          0
cpu0_L1I WRITEBACK ACCESS:          0  HIT:          0  MISS:          0
cpu0_L1I TRANSLATION ACCESS:          0  HIT:          0  MISS:          0
cpu0_L1I PREFETCH  REQUESTED:          0  ISSUED:          0  USEFUL:          0  USELESS:          0
cpu0_L1I AVERAGE MISS LATENCY: 313.51 cycles
cpu0_STLB TOTAL     ACCESS:     865942  HIT:     742429  MISS:     123513
cpu0_STLB LOAD      ACCESS:     684783  HIT:     570624  MISS:     114159
cpu0_STLB RFO       ACCESS:     181159  HIT:     171805  MISS:       9354
cpu0_STLB PREFETCH  ACCESS:          0  HIT:          0  MISS:          0
cpu0_STLB WRITEBACK ACCESS:          0  HIT:          0  MISS:          0
cpu0_STLB TRANSLATION ACCESS:          0  HIT:          0  MISS:          0
cpu0_STLB PREFETCH  REQUESTED:          0  ISSUED:          0  USEFUL:          0  USELESS:          0
cpu0_STLB AVERAGE MISS LATENCY: 39.0719 cycles
cpu0_L1D TOTAL     ACCESS:   18107558  HIT:   12283757  MISS:    5823801
cpu0_L1D LOAD      ACCESS:   12223592  HIT:    7229386  MISS:    4994206
cpu0_L1D RFO       ACCESS:    5763985  HIT:    4939361  MISS:     824624
cpu0_L1D PREFETCH  ACCESS:          0  HIT:          0  MISS:          0
cpu0_L1D WRITEBACK ACCESS:          0  HIT:          0  MISS:          0
cpu0_L1D TRANSLATION ACCESS:     119981  HIT:     115010  MISS:       4971
cpu0_L1D PREFETCH  REQUESTED:          0  ISSUED:          0  USEFUL:          0  USELESS:          0
cpu0_L1D AVERAGE MISS LATENCY: 208.112 cycles
cpu0_L2C TOTAL     ACCESS:    8411550  HIT:    3951238  MISS:    4460312
cpu0_L2C LOAD      ACCESS:    4994296  HIT:    1227862  MISS:    3766434
cpu0_L2C RFO       ACCESS:     824559  HIT:     131438  MISS:     693121
cpu0_L2C PREFETCH  ACCESS:          0  HIT:          0  MISS:          0
cpu0_L2C WRITEBACK ACCESS:    2587724  HIT:    2587596  MISS:        128
cpu0_L2C TRANSLATION ACCESS:       4971  HIT:       4342  MISS:        629
cpu0_L2C PREFETCH  REQUESTED:          0  ISSUED:          0  USEFUL:          0  USELESS:          0
cpu0_L2C AVERAGE MISS LATENCY: 257.179 cycles
LLC TOTAL     ACCESS:    6311714  HIT:    3167969  MISS:    3143745
LLC LOAD      ACCESS:    3766405  HIT:    1417628  MISS:    2348777
LLC RFO       ACCESS:     693118  HIT:     273502  MISS:     419616
LLC PREFETCH  ACCESS:          0  HIT:          0  MISS:          0
LLC WRITEBACK ACCESS:    1851562  HIT:    1476468  MISS:     375094
LLC TRANSLATION ACCESS:        629  HIT:        371  MISS:        258
LLC PREFETCH  REQUESTED:          0  ISSUED:          0  USEFUL:          0  USELESS:          0
LLC AVERAGE MISS LATENCY: 334.651 cycles
OPTgen accesses: 77062
OPTgen hits: 31380
OPTgen hit rate: 40.7205



DRAM Statistics
 CHANNEL 0
 RQ ROW_BUFFER_HIT:     267001  ROW_BUFFER_MISS:    2498883
 DBUS AVG_CONGESTED_CYCLE:    3.95312
 WQ ROW_BUFFER_HIT:      39718  ROW_BUFFER_MISS:     960178  FULL:     330933


CPU 0 Branch Prediction Accuracy: 93.2069% MPKI: 14.28 Average ROB Occupancy at Mispredict: 49.8509
Branch type MPKI
BRANCH_DIRECT_JUMP: 0.00099
BRANCH_INDIRECT: 0.00023
BRANCH_CONDITIONAL: 14.2767
BRANCH_DIRECT_CALL: 0.00062
BRANCH_INDIRECT_CALL: 0.00054
BRANCH_RETURN: 0.00093

