
*** ChampSim Multicore Out-of-Order Simulator ***

Warmup Instructions: 10000000
Simulation Instructions: 100000000
Number of CPUs: 1
Off-chip DRAM Size: 4 GiB Channels: 1 Width: 64-bit Data Rate: 3200 MT/s

VirtualMemory physical capacity: 8588881920 num_ppages: 2096895
VirtualMemory page size: 4096 log2_page_size: 12

CPU 0 runs /Users/raghavprasad/brandon/Homework2/traces/tonto_2049B.trace.xz
CPU 0 Bimodal branch predictor
Basic BTB sets: 1024 ways: 8 indirect buffer size: 4096 RAS size: 64
Initialize Hawkeye state
Heartbeat CPU 0 instructions: 10000001 cycles: 3734659 heartbeat IPC: 2.67762 cumulative IPC: 2.67762 (Simulation time: 0 hr 1 min 3 sec) 

Warmup complete CPU 0 instructions: 10000001 cycles: 3734659 (Simulation time: 0 hr 1 min 3 sec) 

Heartbeat CPU 0 instructions: 20000000 cycles: 11056727 heartbeat IPC: 1.36573 cumulative IPC: 1.36573 (Simulation time: 0 hr 1 min 57 sec) 
Heartbeat CPU 0 instructions: 30000004 cycles: 17538388 heartbeat IPC: 1.54281 cumulative IPC: 1.44888 (Simulation time: 0 hr 2 min 44 sec) 
Heartbeat CPU 0 instructions: 40000003 cycles: 24885855 heartbeat IPC: 1.36101 cumulative IPC: 1.41836 (Simulation time: 0 hr 3 min 43 sec) 
Heartbeat CPU 0 instructions: 50000003 cycles: 31233830 heartbeat IPC: 1.57531 cumulative IPC: 1.45459 (Simulation time: 0 hr 4 min 35 sec) 
Heartbeat CPU 0 instructions: 60000002 cycles: 38311999 heartbeat IPC: 1.41279 cumulative IPC: 1.44603 (Simulation time: 0 hr 5 min 34 sec) 
Heartbeat CPU 0 instructions: 70000001 cycles: 45585471 heartbeat IPC: 1.37486 cumulative IPC: 1.43366 (Simulation time: 0 hr 6 min 39 sec) 
Heartbeat CPU 0 instructions: 80000000 cycles: 51678162 heartbeat IPC: 1.64131 cumulative IPC: 1.46005 (Simulation time: 0 hr 7 min 31 sec) 
Heartbeat CPU 0 instructions: 90000002 cycles: 58746040 heartbeat IPC: 1.41485 cumulative IPC: 1.45424 (Simulation time: 0 hr 8 min 35 sec) 
Heartbeat CPU 0 instructions: 100000001 cycles: 66329962 heartbeat IPC: 1.31858 cumulative IPC: 1.43781 (Simulation time: 0 hr 9 min 46 sec) 
Heartbeat CPU 0 instructions: 110000004 cycles: 72940916 heartbeat IPC: 1.51264 cumulative IPC: 1.44496 (Simulation time: 0 hr 10 min 44 sec) 
Finished CPU 0 instructions: 100000003 cycles: 69206257 cumulative IPC: 1.44496 (Simulation time: 0 hr 10 min 44 sec) 

ChampSim completed all CPUs

Region of Interest Statistics

CPU 0 cumulative IPC: 1.44496 instructions: 100000003 cycles: 69206257
cpu0_DTLB TOTAL     ACCESS:   29908654  HIT:   29850889  MISS:      57765
cpu0_DTLB LOAD      ACCESS:   25590017  HIT:   25545390  MISS:      44627
cpu0_DTLB RFO       ACCESS:    4318637  HIT:    4305499  MISS:      13138
cpu0_DTLB PREFETCH  ACCESS:          0  HIT:          0  MISS:          0
cpu0_DTLB WRITEBACK ACCESS:          0  HIT:          0  MISS:          0
cpu0_DTLB TRANSLATION ACCESS:          0  HIT:          0  MISS:          0
cpu0_DTLB PREFETCH  REQUESTED:          0  ISSUED:          0  USEFUL:          0  USELESS:          0
cpu0_DTLB AVERAGE MISS LATENCY: 10.0092 cycles
cpu0_ITLB TOTAL     ACCESS:    5046798  HIT:    5044020  MISS:       2778
cpu0_ITLB LOAD      ACCESS:    5046798  HIT:    5044020  MISS:       2778
cpu0_ITLB RFO       ACCESS:          0  HIT:          0  MISS:          0
cpu0_ITLB PREFETCH  ACCESS:          0  HIT:          0  MISS:          0
cpu0_ITLB WRITEBACK ACCESS:          0  HIT:          0  MISS:          0
cpu0_ITLB TRANSLATION ACCESS:          0  HIT:          0  MISS:          0
cpu0_ITLB PREFETCH  REQUESTED:          0  ISSUED:          0  USEFUL:          0  USELESS:          0
cpu0_ITLB AVERAGE MISS LATENCY: 9.53564 cycles
cpu0_L1I TOTAL     ACCESS:    6242560  HIT:    6192784  MISS:      49776
cpu0_L1I LOAD      ACCESS:    6242560  HIT:    6192784  MISS:      49776
cpu0_L1I RFO       ACCESS:          0  HIT:          0  MISS:          0
cpu0_L1I PREFETCH  ACCESS:          0  HIT:          0  MISS:          0
cpu0_L1I WRITEBACK ACCESS:          0  HIT:          0  MISS:          0
cpu0_L1I TRANSLATION ACCESS:          0  HIT:          0  MISS:          0
cpu0_L1I PREFETCH  REQUESTED:          0  ISSUED:          0  USEFUL:          0  USELESS:          0
cpu0_L1I AVERAGE MISS LATENCY: 12.5538 cycles
cpu0_STLB TOTAL     ACCESS:      60543  HIT:      60262  MISS:        281
cpu0_STLB LOAD      ACCESS:      47405  HIT:      47124  MISS:        281
cpu0_STLB RFO       ACCESS:      13138  HIT:      13138  MISS:          0
cpu0_STLB PREFETCH  ACCESS:          0  HIT:          0  MISS:          0
cpu0_STLB WRITEBACK ACCESS:          0  HIT:          0  MISS:          0
cpu0_STLB TRANSLATION ACCESS:          0  HIT:          0  MISS:          0
cpu0_STLB PREFETCH  REQUESTED:          0  ISSUED:          0  USEFUL:          0  USELESS:          0
cpu0_STLB AVERAGE MISS LATENCY: 210.544 cycles
cpu0_L1D TOTAL     ACCESS:   40541964  HIT:   40324162  MISS:     217802
cpu0_L1D LOAD      ACCESS:   31612181  HIT:   31483524  MISS:     128657
cpu0_L1D RFO       ACCESS:    8929502  HIT:    8840467  MISS:      89035
cpu0_L1D PREFETCH  ACCESS:          0  HIT:          0  MISS:          0
cpu0_L1D WRITEBACK ACCESS:          0  HIT:          0  MISS:          0
cpu0_L1D TRANSLATION ACCESS:        281  HIT:        171  MISS:        110
cpu0_L1D PREFETCH  REQUESTED:          0  ISSUED:          0  USEFUL:          0  USELESS:          0
cpu0_L1D AVERAGE MISS LATENCY: 21.3964 cycles
cpu0_L2C TOTAL     ACCESS:     384419  HIT:     361754  MISS:      22665
cpu0_L2C LOAD      ACCESS:     178421  HIT:     156097  MISS:      22324
cpu0_L2C RFO       ACCESS:      89028  HIT:      88705  MISS:        323
cpu0_L2C PREFETCH  ACCESS:          0  HIT:          0  MISS:          0
cpu0_L2C WRITEBACK ACCESS:     116860  HIT:     116844  MISS:         16
cpu0_L2C TRANSLATION ACCESS:        110  HIT:        108  MISS:          2
cpu0_L2C PREFETCH  REQUESTED:          0  ISSUED:          0  USEFUL:          0  USELESS:          0
cpu0_L2C AVERAGE MISS LATENCY: 102.57 cycles
LLC TOTAL     ACCESS:      25212  HIT:      13355  MISS:      11857
LLC LOAD      ACCESS:      22324  HIT:      10491  MISS:      11833
LLC RFO       ACCESS:        323  HIT:        299  MISS:         24
LLC PREFETCH  ACCESS:          0  HIT:          0  MISS:          0
LLC WRITEBACK ACCESS:       2563  HIT:       2563  MISS:          0
LLC TRANSLATION ACCESS:          2  HIT:          2  MISS:          0
LLC PREFETCH  REQUESTED:          0  ISSUED:          0  USEFUL:          0  USELESS:          0
LLC AVERAGE MISS LATENCY: 155.951 cycles
OPTgen accesses: 473
OPTgen hits: 176
OPTgen hit rate: 37.2093



DRAM Statistics
 CHANNEL 0
 RQ ROW_BUFFER_HIT:       2580  ROW_BUFFER_MISS:       9277
 DBUS AVG_CONGESTED_CYCLE:     3.7375
 WQ ROW_BUFFER_HIT:          1  ROW_BUFFER_MISS:          0  FULL:          0


CPU 0 Branch Prediction Accuracy: 91.1897% MPKI: 6.32264 Average ROB Occupancy at Mispredict: 141.386
Branch type MPKI
BRANCH_DIRECT_JUMP: 0.00033
BRANCH_INDIRECT: 0.00719
BRANCH_CONDITIONAL: 6.31435
BRANCH_DIRECT_CALL: 0.00044
BRANCH_INDIRECT_CALL: 0
BRANCH_RETURN: 0.00033

