
*** ChampSim Multicore Out-of-Order Simulator ***

Warmup Instructions: 10000000
Simulation Instructions: 100000000
Number of CPUs: 1
Off-chip DRAM Size: 4 GiB Channels: 1 Width: 64-bit Data Rate: 3200 MT/s

VirtualMemory physical capacity: 8588881920 num_ppages: 2096895
VirtualMemory page size: 4096 log2_page_size: 12

CPU 0 runs /datasets/cs240c-wi22-a00-public/data/Assignment2/astar_23B.trace.xz
CPU 0 Bimodal branch predictor
Basic BTB sets: 1024 ways: 8 indirect buffer size: 4096 RAS size: 64
Initialize Hawkeye state
Heartbeat CPU 0 instructions: 10000002 cycles: 2670768 heartbeat IPC: 3.74424 cumulative IPC: 3.74424 (Simulation time: 0 hr 0 min 43 sec) 

Warmup complete CPU 0 instructions: 10000002 cycles: 2670768 (Simulation time: 0 hr 0 min 43 sec) 

Heartbeat CPU 0 instructions: 20000003 cycles: 25560988 heartbeat IPC: 0.436868 cumulative IPC: 0.436868 (Simulation time: 0 hr 1 min 33 sec) 
Heartbeat CPU 0 instructions: 30000000 cycles: 49835264 heartbeat IPC: 0.411959 cumulative IPC: 0.424048 (Simulation time: 0 hr 2 min 23 sec) 
Heartbeat CPU 0 instructions: 40000002 cycles: 74298566 heartbeat IPC: 0.408776 cumulative IPC: 0.418832 (Simulation time: 0 hr 3 min 16 sec) 
Heartbeat CPU 0 instructions: 50000002 cycles: 98510938 heartbeat IPC: 0.413012 cumulative IPC: 0.417362 (Simulation time: 0 hr 4 min 8 sec) 
Heartbeat CPU 0 instructions: 60000000 cycles: 123105362 heartbeat IPC: 0.406596 cumulative IPC: 0.415163 (Simulation time: 0 hr 4 min 59 sec) 
Heartbeat CPU 0 instructions: 70000000 cycles: 146155794 heartbeat IPC: 0.433831 cumulative IPC: 0.418162 (Simulation time: 0 hr 5 min 48 sec) 
Heartbeat CPU 0 instructions: 80000000 cycles: 170310259 heartbeat IPC: 0.414002 cumulative IPC: 0.417563 (Simulation time: 0 hr 6 min 39 sec) 
Heartbeat CPU 0 instructions: 90000004 cycles: 195023861 heartbeat IPC: 0.404636 cumulative IPC: 0.415902 (Simulation time: 0 hr 7 min 31 sec) 
Heartbeat CPU 0 instructions: 100000002 cycles: 218451595 heartbeat IPC: 0.426844 cumulative IPC: 0.41709 (Simulation time: 0 hr 8 min 21 sec) 
Heartbeat CPU 0 instructions: 110000003 cycles: 242472712 heartbeat IPC: 0.4163 cumulative IPC: 0.417011 (Simulation time: 0 hr 9 min 11 sec) 
Finished CPU 0 instructions: 100000001 cycles: 239801944 cumulative IPC: 0.417011 (Simulation time: 0 hr 9 min 11 sec) 

ChampSim completed all CPUs

Region of Interest Statistics

CPU 0 cumulative IPC: 0.417011 instructions: 100000001 cycles: 239801944
cpu0_DTLB TOTAL     ACCESS:   24054186  HIT:   21626340  MISS:    2427846
cpu0_DTLB LOAD      ACCESS:   21285513  HIT:   19103581  MISS:    2181932
cpu0_DTLB RFO       ACCESS:    2768673  HIT:    2522759  MISS:     245914
cpu0_DTLB PREFETCH  ACCESS:          0  HIT:          0  MISS:          0
cpu0_DTLB WRITEBACK ACCESS:          0  HIT:          0  MISS:          0
cpu0_DTLB TRANSLATION ACCESS:          0  HIT:          0  MISS:          0
cpu0_DTLB PREFETCH  REQUESTED:          0  ISSUED:          0  USEFUL:          0  USELESS:          0
cpu0_DTLB AVERAGE MISS LATENCY: 10.5703 cycles
cpu0_ITLB TOTAL     ACCESS:   12810379  HIT:   12810369  MISS:         10
cpu0_ITLB LOAD      ACCESS:   12810379  HIT:   12810369  MISS:         10
cpu0_ITLB RFO       ACCESS:          0  HIT:          0  MISS:          0
cpu0_ITLB PREFETCH  ACCESS:          0  HIT:          0  MISS:          0
cpu0_ITLB WRITEBACK ACCESS:          0  HIT:          0  MISS:          0
cpu0_ITLB TRANSLATION ACCESS:          0  HIT:          0  MISS:          0
cpu0_ITLB PREFETCH  REQUESTED:          0  ISSUED:          0  USEFUL:          0  USELESS:          0
cpu0_ITLB AVERAGE MISS LATENCY: 239.6 cycles
cpu0_L1I TOTAL     ACCESS:       4962  HIT:       4861  MISS:        101
cpu0_L1I LOAD      ACCESS:       4962  HIT:       4861  MISS:        101
cpu0_L1I RFO       ACCESS:          0  HIT:          0  MISS:          0
cpu0_L1I PREFETCH  ACCESS:          0  HIT:          0  MISS:          0
cpu0_L1I WRITEBACK ACCESS:          0  HIT:          0  MISS:          0
cpu0_L1I TRANSLATION ACCESS:          0  HIT:          0  MISS:          0
cpu0_L1I PREFETCH  REQUESTED:          0  ISSUED:          0  USEFUL:          0  USELESS:          0
cpu0_L1I AVERAGE MISS LATENCY: 199.515 cycles
cpu0_STLB TOTAL     ACCESS:    2427856  HIT:    2026646  MISS:     401210
cpu0_STLB LOAD      ACCESS:    2181942  HIT:    1847055  MISS:     334887
cpu0_STLB RFO       ACCESS:     245914  HIT:     179591  MISS:      66323
cpu0_STLB PREFETCH  ACCESS:          0  HIT:          0  MISS:          0
cpu0_STLB WRITEBACK ACCESS:          0  HIT:          0  MISS:          0
cpu0_STLB TRANSLATION ACCESS:          0  HIT:          0  MISS:          0
cpu0_STLB PREFETCH  REQUESTED:          0  ISSUED:          0  USEFUL:          0  USELESS:          0
cpu0_STLB AVERAGE MISS LATENCY: 9.44272 cycles
cpu0_L1D TOTAL     ACCESS:   26431707  HIT:   23507218  MISS:    2924489
cpu0_L1D LOAD      ACCESS:   21757765  HIT:   18872342  MISS:    2885423
cpu0_L1D RFO       ACCESS:    4287416  HIT:    4250333  MISS:      37083
cpu0_L1D PREFETCH  ACCESS:          0  HIT:          0  MISS:          0
cpu0_L1D WRITEBACK ACCESS:          0  HIT:          0  MISS:          0
cpu0_L1D TRANSLATION ACCESS:     386526  HIT:     384543  MISS:       1983
cpu0_L1D PREFETCH  REQUESTED:          0  ISSUED:          0  USEFUL:          0  USELESS:          0
cpu0_L1D AVERAGE MISS LATENCY: 33.5019 cycles
cpu0_L2C TOTAL     ACCESS:    3881062  HIT:    2756691  MISS:    1124371
cpu0_L2C LOAD      ACCESS:    2885453  HIT:    1767321  MISS:    1118132
cpu0_L2C RFO       ACCESS:      37083  HIT:      31088  MISS:       5995
cpu0_L2C PREFETCH  ACCESS:          0  HIT:          0  MISS:          0
cpu0_L2C WRITEBACK ACCESS:     956543  HIT:     956487  MISS:         56
cpu0_L2C TRANSLATION ACCESS:       1983  HIT:       1795  MISS:        188
cpu0_L2C PREFETCH  REQUESTED:          0  ISSUED:          0  USEFUL:          0  USELESS:          0
cpu0_L2C AVERAGE MISS LATENCY: 58.4912 cycles
LLC TOTAL     ACCESS:    1532667  HIT:    1257104  MISS:     275563
LLC LOAD      ACCESS:    1117975  HIT:     874779  MISS:     243196
LLC RFO       ACCESS:       5995  HIT:       5675  MISS:        320
LLC PREFETCH  ACCESS:          0  HIT:          0  MISS:          0
LLC WRITEBACK ACCESS:     408509  HIT:     376472  MISS:      32037
LLC TRANSLATION ACCESS:        188  HIT:        178  MISS:         10
LLC PREFETCH  REQUESTED:          0  ISSUED:          0  USEFUL:          0  USELESS:          0
LLC AVERAGE MISS LATENCY: 152.99 cycles
OPTgen accesses: 18808
OPTgen hits: 14816
OPTgen hit rate: 78.775



DRAM Statistics
 CHANNEL 0
 RQ ROW_BUFFER_HIT:        677  ROW_BUFFER_MISS:     242607
 DBUS AVG_CONGESTED_CYCLE:    3.56925
 WQ ROW_BUFFER_HIT:       7166  ROW_BUFFER_MISS:     133973  FULL:          0


CPU 0 Branch Prediction Accuracy: 69.3175% MPKI: 58.5794 Average ROB Occupancy at Mispredict: 5.13463
Branch type MPKI
BRANCH_DIRECT_JUMP: 0.00025
BRANCH_INDIRECT: 0
BRANCH_CONDITIONAL: 58.5789
BRANCH_DIRECT_CALL: 0.00016
BRANCH_INDIRECT_CALL: 0
BRANCH_RETURN: 0.00016

