
*** ChampSim Multicore Out-of-Order Simulator ***

Warmup Instructions: 10000000
Simulation Instructions: 100000000
Number of CPUs: 1
Off-chip DRAM Size: 4 GiB Channels: 1 Width: 64-bit Data Rate: 3200 MT/s

VirtualMemory physical capacity: 8588881920 num_ppages: 2096895
VirtualMemory page size: 4096 log2_page_size: 12

CPU 0 runs /datasets/cs240c-wi22-a00-public/data/Assignment2/cactusADM_734B.trace.xz
CPU 0 Bimodal branch predictor
Basic BTB sets: 1024 ways: 8 indirect buffer size: 4096 RAS size: 64
Initialize Hawkeye state
Heartbeat CPU 0 instructions: 10000002 cycles: 3647078 heartbeat IPC: 2.74192 cumulative IPC: 2.74192 (Simulation time: 0 hr 0 min 59 sec) 

Warmup complete CPU 0 instructions: 10000002 cycles: 3647078 (Simulation time: 0 hr 0 min 59 sec) 

Heartbeat CPU 0 instructions: 20000004 cycles: 13748155 heartbeat IPC: 0.989994 cumulative IPC: 0.989994 (Simulation time: 0 hr 2 min 51 sec) 
Heartbeat CPU 0 instructions: 30000001 cycles: 23108526 heartbeat IPC: 1.06833 cumulative IPC: 1.02767 (Simulation time: 0 hr 4 min 39 sec) 
Heartbeat CPU 0 instructions: 40000004 cycles: 32023262 heartbeat IPC: 1.12174 cumulative IPC: 1.05722 (Simulation time: 0 hr 6 min 24 sec) 
Heartbeat CPU 0 instructions: 50000001 cycles: 41019070 heartbeat IPC: 1.11163 cumulative IPC: 1.07032 (Simulation time: 0 hr 8 min 9 sec) 
Heartbeat CPU 0 instructions: 60000002 cycles: 47280893 heartbeat IPC: 1.59698 cumulative IPC: 1.1459 (Simulation time: 0 hr 9 min 37 sec) 
Heartbeat CPU 0 instructions: 70000003 cycles: 56029552 heartbeat IPC: 1.14303 cumulative IPC: 1.14542 (Simulation time: 0 hr 11 min 21 sec) 
Heartbeat CPU 0 instructions: 80000002 cycles: 64678675 heartbeat IPC: 1.15619 cumulative IPC: 1.14695 (Simulation time: 0 hr 13 min 5 sec) 
Heartbeat CPU 0 instructions: 90000000 cycles: 73455928 heartbeat IPC: 1.13931 cumulative IPC: 1.14599 (Simulation time: 0 hr 14 min 48 sec) 
Heartbeat CPU 0 instructions: 100000004 cycles: 79767835 heartbeat IPC: 1.58431 cumulative IPC: 1.18233 (Simulation time: 0 hr 16 min 20 sec) 
Heartbeat CPU 0 instructions: 110000001 cycles: 88580730 heartbeat IPC: 1.1347 cumulative IPC: 1.17739 (Simulation time: 0 hr 18 min 6 sec) 
Finished CPU 0 instructions: 100000004 cycles: 84933653 cumulative IPC: 1.17739 (Simulation time: 0 hr 18 min 6 sec) 

ChampSim completed all CPUs

Region of Interest Statistics

CPU 0 cumulative IPC: 1.17739 instructions: 100000004 cycles: 84933653
cpu0_DTLB TOTAL     ACCESS:   21678863  HIT:   19834021  MISS:    1844842
cpu0_DTLB LOAD      ACCESS:   17811617  HIT:   16554733  MISS:    1256884
cpu0_DTLB RFO       ACCESS:    3867246  HIT:    3279288  MISS:     587958
cpu0_DTLB PREFETCH  ACCESS:          0  HIT:          0  MISS:          0
cpu0_DTLB WRITEBACK ACCESS:          0  HIT:          0  MISS:          0
cpu0_DTLB TRANSLATION ACCESS:          0  HIT:          0  MISS:          0
cpu0_DTLB PREFETCH  REQUESTED:          0  ISSUED:          0  USEFUL:          0  USELESS:          0
cpu0_DTLB AVERAGE MISS LATENCY: 17.2897 cycles
cpu0_ITLB TOTAL     ACCESS:    1526843  HIT:    1526843  MISS:          0
cpu0_ITLB LOAD      ACCESS:    1526843  HIT:    1526843  MISS:          0
cpu0_ITLB RFO       ACCESS:          0  HIT:          0  MISS:          0
cpu0_ITLB PREFETCH  ACCESS:          0  HIT:          0  MISS:          0
cpu0_ITLB WRITEBACK ACCESS:          0  HIT:          0  MISS:          0
cpu0_ITLB TRANSLATION ACCESS:          0  HIT:          0  MISS:          0
cpu0_ITLB PREFETCH  REQUESTED:          0  ISSUED:          0  USEFUL:          0  USELESS:          0
cpu0_ITLB AVERAGE MISS LATENCY: -nan cycles
cpu0_L1I TOTAL     ACCESS:    7870319  HIT:    7870316  MISS:          3
cpu0_L1I LOAD      ACCESS:    7870319  HIT:    7870316  MISS:          3
cpu0_L1I RFO       ACCESS:          0  HIT:          0  MISS:          0
cpu0_L1I PREFETCH  ACCESS:          0  HIT:          0  MISS:          0
cpu0_L1I WRITEBACK ACCESS:          0  HIT:          0  MISS:          0
cpu0_L1I TRANSLATION ACCESS:          0  HIT:          0  MISS:          0
cpu0_L1I PREFETCH  REQUESTED:          0  ISSUED:          0  USEFUL:          0  USELESS:          0
cpu0_L1I AVERAGE MISS LATENCY: 800.667 cycles
cpu0_STLB TOTAL     ACCESS:    1844842  HIT:     891250  MISS:     953592
cpu0_STLB LOAD      ACCESS:    1256884  HIT:     640567  MISS:     616317
cpu0_STLB RFO       ACCESS:     587958  HIT:     250683  MISS:     337275
cpu0_STLB PREFETCH  ACCESS:          0  HIT:          0  MISS:          0
cpu0_STLB WRITEBACK ACCESS:          0  HIT:          0  MISS:          0
cpu0_STLB TRANSLATION ACCESS:          0  HIT:          0  MISS:          0
cpu0_STLB PREFETCH  REQUESTED:          0  ISSUED:          0  USEFUL:          0  USELESS:          0
cpu0_STLB AVERAGE MISS LATENCY: 15.9148 cycles
cpu0_L1D TOTAL     ACCESS:   37600404  HIT:   36280185  MISS:    1320219
cpu0_L1D LOAD      ACCESS:   25663420  HIT:   24612699  MISS:    1050721
cpu0_L1D RFO       ACCESS:   10984388  HIT:   10720240  MISS:     264148
cpu0_L1D PREFETCH  ACCESS:          0  HIT:          0  MISS:          0
cpu0_L1D WRITEBACK ACCESS:          0  HIT:          0  MISS:          0
cpu0_L1D TRANSLATION ACCESS:     952596  HIT:     947246  MISS:       5350
cpu0_L1D PREFETCH  REQUESTED:          0  ISSUED:          0  USEFUL:          0  USELESS:          0
cpu0_L1D AVERAGE MISS LATENCY: 289.148 cycles
cpu0_L2C TOTAL     ACCESS:    1588178  HIT:     691770  MISS:     896408
cpu0_L2C LOAD      ACCESS:    1050724  HIT:     418913  MISS:     631811
cpu0_L2C RFO       ACCESS:     264148  HIT:          0  MISS:     264148
cpu0_L2C PREFETCH  ACCESS:          0  HIT:          0  MISS:          0
cpu0_L2C WRITEBACK ACCESS:     267956  HIT:     267758  MISS:        198
cpu0_L2C TRANSLATION ACCESS:       5350  HIT:       5099  MISS:        251
cpu0_L2C PREFETCH  REQUESTED:          0  ISSUED:          0  USEFUL:          0  USELESS:          0
cpu0_L2C AVERAGE MISS LATENCY: 409.634 cycles
LLC TOTAL     ACCESS:    1162868  HIT:     338962  MISS:     823906
LLC LOAD      ACCESS:     631811  HIT:     148532  MISS:     483279
LLC RFO       ACCESS:     264148  HIT:      82208  MISS:     181940
LLC PREFETCH  ACCESS:          0  HIT:          0  MISS:          0
LLC WRITEBACK ACCESS:     266658  HIT:     108204  MISS:     158454
LLC TRANSLATION ACCESS:        251  HIT:         18  MISS:        233
LLC PREFETCH  REQUESTED:          0  ISSUED:          0  USEFUL:          0  USELESS:          0
LLC AVERAGE MISS LATENCY: 422.837 cycles
OPTgen accesses: 15001
OPTgen hits: 4754
OPTgen hit rate: 31.6912



DRAM Statistics
 CHANNEL 0
 RQ ROW_BUFFER_HIT:       6351  ROW_BUFFER_MISS:     659075
 DBUS AVG_CONGESTED_CYCLE:     3.9786
 WQ ROW_BUFFER_HIT:      16989  ROW_BUFFER_MISS:     221619  FULL:        714


CPU 0 Branch Prediction Accuracy: 97.7528% MPKI: 0.04677 Average ROB Occupancy at Mispredict: 283.737
Branch type MPKI
BRANCH_DIRECT_JUMP: 0
BRANCH_INDIRECT: 0
BRANCH_CONDITIONAL: 0.04677
BRANCH_DIRECT_CALL: 0
BRANCH_INDIRECT_CALL: 0
BRANCH_RETURN: 0

