
*** ChampSim Multicore Out-of-Order Simulator ***

Warmup Instructions: 10000000
Simulation Instructions: 100000000
Number of CPUs: 1
Off-chip DRAM Size: 4 GiB Channels: 1 Width: 64-bit Data Rate: 3200 MT/s

VirtualMemory physical capacity: 8588881920 num_ppages: 2096895
VirtualMemory page size: 4096 log2_page_size: 12

CPU 0 runs /datasets/cs240c-wi22-a00-public/data/Assignment2/GemsFDTD_716B.trace.xz
CPU 0 Bimodal branch predictor
Basic BTB sets: 1024 ways: 8 indirect buffer size: 4096 RAS size: 64
Initialize Hawkeye state
Heartbeat CPU 0 instructions: 10000004 cycles: 2536408 heartbeat IPC: 3.94258 cumulative IPC: 3.94258 (Simulation time: 0 hr 0 min 34 sec) 

Warmup complete CPU 0 instructions: 10000004 cycles: 2536408 (Simulation time: 0 hr 0 min 34 sec) 

Heartbeat CPU 0 instructions: 20000003 cycles: 24414443 heartbeat IPC: 0.457079 cumulative IPC: 0.457079 (Simulation time: 0 hr 3 min 7 sec) 
Heartbeat CPU 0 instructions: 30000002 cycles: 38065488 heartbeat IPC: 0.732545 cumulative IPC: 0.562919 (Simulation time: 0 hr 5 min 3 sec) 
Heartbeat CPU 0 instructions: 40000000 cycles: 49460862 heartbeat IPC: 0.877549 cumulative IPC: 0.639325 (Simulation time: 0 hr 6 min 46 sec) 
Heartbeat CPU 0 instructions: 50000002 cycles: 67439759 heartbeat IPC: 0.556208 cumulative IPC: 0.616301 (Simulation time: 0 hr 9 min 3 sec) 
Heartbeat CPU 0 instructions: 60000002 cycles: 83286028 heartbeat IPC: 0.631063 cumulative IPC: 0.619198 (Simulation time: 0 hr 11 min 8 sec) 
Heartbeat CPU 0 instructions: 70000004 cycles: 95501521 heartbeat IPC: 0.818633 cumulative IPC: 0.645403 (Simulation time: 0 hr 12 min 56 sec) 
Heartbeat CPU 0 instructions: 80000003 cycles: 109915740 heartbeat IPC: 0.693759 cumulative IPC: 0.651895 (Simulation time: 0 hr 14 min 52 sec) 
Heartbeat CPU 0 instructions: 90000001 cycles: 128251897 heartbeat IPC: 0.54537 cumulative IPC: 0.636358 (Simulation time: 0 hr 17 min 7 sec) 
Heartbeat CPU 0 instructions: 100000001 cycles: 141348962 heartbeat IPC: 0.76353 cumulative IPC: 0.648356 (Simulation time: 0 hr 19 min 0 sec) 
Heartbeat CPU 0 instructions: 110000004 cycles: 153012965 heartbeat IPC: 0.857339 cumulative IPC: 0.664555 (Simulation time: 0 hr 20 min 43 sec) 
Finished CPU 0 instructions: 100000000 cycles: 150476557 cumulative IPC: 0.664555 (Simulation time: 0 hr 20 min 43 sec) 

ChampSim completed all CPUs

Region of Interest Statistics

CPU 0 cumulative IPC: 0.664555 instructions: 100000000 cycles: 150476557
cpu0_DTLB TOTAL     ACCESS:   29891626  HIT:   26861841  MISS:    3029785
cpu0_DTLB LOAD      ACCESS:   20918622  HIT:   17889736  MISS:    3028886
cpu0_DTLB RFO       ACCESS:    8973004  HIT:    8972105  MISS:        899
cpu0_DTLB PREFETCH  ACCESS:          0  HIT:          0  MISS:          0
cpu0_DTLB WRITEBACK ACCESS:          0  HIT:          0  MISS:          0
cpu0_DTLB TRANSLATION ACCESS:          0  HIT:          0  MISS:          0
cpu0_DTLB PREFETCH  REQUESTED:          0  ISSUED:          0  USEFUL:          0  USELESS:          0
cpu0_DTLB AVERAGE MISS LATENCY: 13.8564 cycles
cpu0_ITLB TOTAL     ACCESS:    1847607  HIT:    1847605  MISS:          2
cpu0_ITLB LOAD      ACCESS:    1847607  HIT:    1847605  MISS:          2
cpu0_ITLB RFO       ACCESS:          0  HIT:          0  MISS:          0
cpu0_ITLB PREFETCH  ACCESS:          0  HIT:          0  MISS:          0
cpu0_ITLB WRITEBACK ACCESS:          0  HIT:          0  MISS:          0
cpu0_ITLB TRANSLATION ACCESS:          0  HIT:          0  MISS:          0
cpu0_ITLB PREFETCH  REQUESTED:          0  ISSUED:          0  USEFUL:          0  USELESS:          0
cpu0_ITLB AVERAGE MISS LATENCY: 470 cycles
cpu0_L1I TOTAL     ACCESS:    7856618  HIT:    7856496  MISS:        122
cpu0_L1I LOAD      ACCESS:    7856618  HIT:    7856496  MISS:        122
cpu0_L1I RFO       ACCESS:          0  HIT:          0  MISS:          0
cpu0_L1I PREFETCH  ACCESS:          0  HIT:          0  MISS:          0
cpu0_L1I WRITEBACK ACCESS:          0  HIT:          0  MISS:          0
cpu0_L1I TRANSLATION ACCESS:          0  HIT:          0  MISS:          0
cpu0_L1I PREFETCH  REQUESTED:          0  ISSUED:          0  USEFUL:          0  USELESS:          0
cpu0_L1I AVERAGE MISS LATENCY: 273.221 cycles
cpu0_STLB TOTAL     ACCESS:    3029787  HIT:    2757351  MISS:     272436
cpu0_STLB LOAD      ACCESS:    3028888  HIT:    2756452  MISS:     272436
cpu0_STLB RFO       ACCESS:        899  HIT:        899  MISS:          0
cpu0_STLB PREFETCH  ACCESS:          0  HIT:          0  MISS:          0
cpu0_STLB WRITEBACK ACCESS:          0  HIT:          0  MISS:          0
cpu0_STLB TRANSLATION ACCESS:          0  HIT:          0  MISS:          0
cpu0_STLB PREFETCH  REQUESTED:          0  ISSUED:          0  USEFUL:          0  USELESS:          0
cpu0_STLB AVERAGE MISS LATENCY: 51.6227 cycles
cpu0_L1D TOTAL     ACCESS:   34794671  HIT:   26551862  MISS:    8242809
cpu0_L1D LOAD      ACCESS:   22662532  HIT:   14443331  MISS:    8219201
cpu0_L1D RFO       ACCESS:   11865045  HIT:   11865039  MISS:          6
cpu0_L1D PREFETCH  ACCESS:          0  HIT:          0  MISS:          0
cpu0_L1D WRITEBACK ACCESS:          0  HIT:          0  MISS:          0
cpu0_L1D TRANSLATION ACCESS:     267094  HIT:     243492  MISS:      23602
cpu0_L1D PREFETCH  REQUESTED:          0  ISSUED:          0  USEFUL:          0  USELESS:          0
cpu0_L1D AVERAGE MISS LATENCY: 68.5468 cycles
cpu0_L2C TOTAL     ACCESS:    9425514  HIT:    7963721  MISS:    1461793
cpu0_L2C LOAD      ACCESS:    8219323  HIT:    6758156  MISS:    1461167
cpu0_L2C RFO       ACCESS:          6  HIT:          6  MISS:          0
cpu0_L2C PREFETCH  ACCESS:          0  HIT:          0  MISS:          0
cpu0_L2C WRITEBACK ACCESS:    1182583  HIT:    1182546  MISS:         37
cpu0_L2C TRANSLATION ACCESS:      23602  HIT:      23013  MISS:        589
cpu0_L2C PREFETCH  REQUESTED:          0  ISSUED:          0  USEFUL:          0  USELESS:          0
cpu0_L2C AVERAGE MISS LATENCY: 322.56 cycles
LLC TOTAL     ACCESS:    1477187  HIT:      53302  MISS:    1423885
LLC LOAD      ACCESS:    1461154  HIT:      39775  MISS:    1421379
LLC RFO       ACCESS:          0  HIT:          0  MISS:          0
LLC PREFETCH  ACCESS:          0  HIT:          0  MISS:          0
LLC WRITEBACK ACCESS:      15444  HIT:      13304  MISS:       2140
LLC TRANSLATION ACCESS:        589  HIT:        223  MISS:        366
LLC PREFETCH  REQUESTED:          0  ISSUED:          0  USEFUL:          0  USELESS:          0
LLC AVERAGE MISS LATENCY: 309.589 cycles
OPTgen accesses: 24421
OPTgen hits: 1723
OPTgen hit rate: 7.0554



DRAM Statistics
 CHANNEL 0
 RQ ROW_BUFFER_HIT:         67  ROW_BUFFER_MISS:    1421577
 DBUS AVG_CONGESTED_CYCLE:    3.94759
 WQ ROW_BUFFER_HIT:        869  ROW_BUFFER_MISS:       5100  FULL:          0


CPU 0 Branch Prediction Accuracy: 98.9038% MPKI: 0.06477 Average ROB Occupancy at Mispredict: 248.692
Branch type MPKI
BRANCH_DIRECT_JUMP: 0
BRANCH_INDIRECT: 0
BRANCH_CONDITIONAL: 0.06477
BRANCH_DIRECT_CALL: 0
BRANCH_INDIRECT_CALL: 0
BRANCH_RETURN: 0

