
*** ChampSim Multicore Out-of-Order Simulator ***

Warmup Instructions: 10000000
Simulation Instructions: 100000000
Number of CPUs: 1
Off-chip DRAM Size: 4 GiB Channels: 1 Width: 64-bit Data Rate: 3200 MT/s

VirtualMemory physical capacity: 8588881920 num_ppages: 2096895
VirtualMemory page size: 4096 log2_page_size: 12

CPU 0 runs /datasets/cs240c-wi22-a00-public/data/Assignment2/hmmer_7B.trace.xz
CPU 0 Bimodal branch predictor
Basic BTB sets: 1024 ways: 8 indirect buffer size: 4096 RAS size: 64
Initialize Hawkeye state
Heartbeat CPU 0 instructions: 10000004 cycles: 3986065 heartbeat IPC: 2.50874 cumulative IPC: 2.50874 (Simulation time: 0 hr 1 min 0 sec) 

Warmup complete CPU 0 instructions: 10000004 cycles: 3986065 (Simulation time: 0 hr 1 min 0 sec) 

Heartbeat CPU 0 instructions: 20000004 cycles: 9285397 heartbeat IPC: 1.88703 cumulative IPC: 1.88703 (Simulation time: 0 hr 2 min 26 sec) 
Heartbeat CPU 0 instructions: 30000001 cycles: 14188015 heartbeat IPC: 2.03973 cumulative IPC: 1.96041 (Simulation time: 0 hr 3 min 50 sec) 
Heartbeat CPU 0 instructions: 40000001 cycles: 18731661 heartbeat IPC: 2.20088 cumulative IPC: 2.03451 (Simulation time: 0 hr 5 min 11 sec) 
Heartbeat CPU 0 instructions: 50000000 cycles: 24075303 heartbeat IPC: 1.87138 cumulative IPC: 1.99112 (Simulation time: 0 hr 6 min 37 sec) 
Heartbeat CPU 0 instructions: 60000000 cycles: 28411431 heartbeat IPC: 2.30621 cumulative IPC: 2.04705 (Simulation time: 0 hr 7 min 57 sec) 
Heartbeat CPU 0 instructions: 70000003 cycles: 32734657 heartbeat IPC: 2.31309 cumulative IPC: 2.08706 (Simulation time: 0 hr 9 min 19 sec) 
Heartbeat CPU 0 instructions: 80000001 cycles: 37044452 heartbeat IPC: 2.3203 cumulative IPC: 2.11747 (Simulation time: 0 hr 10 min 41 sec) 
Heartbeat CPU 0 instructions: 90000004 cycles: 41364059 heartbeat IPC: 2.31503 cumulative IPC: 2.1403 (Simulation time: 0 hr 12 min 2 sec) 
Heartbeat CPU 0 instructions: 100000002 cycles: 45683327 heartbeat IPC: 2.31521 cumulative IPC: 2.15842 (Simulation time: 0 hr 13 min 25 sec) 
Heartbeat CPU 0 instructions: 110000001 cycles: 50012335 heartbeat IPC: 2.31 cumulative IPC: 2.17267 (Simulation time: 0 hr 14 min 46 sec) 
Finished CPU 0 instructions: 100000002 cycles: 46026271 cumulative IPC: 2.17267 (Simulation time: 0 hr 14 min 46 sec) 

ChampSim completed all CPUs

Region of Interest Statistics

CPU 0 cumulative IPC: 2.17267 instructions: 100000002 cycles: 46026271
cpu0_DTLB TOTAL     ACCESS:   40544069  HIT:   40529902  MISS:      14167
cpu0_DTLB LOAD      ACCESS:   32388678  HIT:   32380946  MISS:       7732
cpu0_DTLB RFO       ACCESS:    8155391  HIT:    8148956  MISS:       6435
cpu0_DTLB PREFETCH  ACCESS:          0  HIT:          0  MISS:          0
cpu0_DTLB WRITEBACK ACCESS:          0  HIT:          0  MISS:          0
cpu0_DTLB TRANSLATION ACCESS:          0  HIT:          0  MISS:          0
cpu0_DTLB PREFETCH  REQUESTED:          0  ISSUED:          0  USEFUL:          0  USELESS:          0
cpu0_DTLB AVERAGE MISS LATENCY: 14.8573 cycles
cpu0_ITLB TOTAL     ACCESS:     798813  HIT:     798741  MISS:         72
cpu0_ITLB LOAD      ACCESS:     798813  HIT:     798741  MISS:         72
cpu0_ITLB RFO       ACCESS:          0  HIT:          0  MISS:          0
cpu0_ITLB PREFETCH  ACCESS:          0  HIT:          0  MISS:          0
cpu0_ITLB WRITEBACK ACCESS:          0  HIT:          0  MISS:          0
cpu0_ITLB TRANSLATION ACCESS:          0  HIT:          0  MISS:          0
cpu0_ITLB PREFETCH  REQUESTED:          0  ISSUED:          0  USEFUL:          0  USELESS:          0
cpu0_ITLB AVERAGE MISS LATENCY: 23.2639 cycles
cpu0_L1I TOTAL     ACCESS:      62179  HIT:      62074  MISS:        105
cpu0_L1I LOAD      ACCESS:      62179  HIT:      62074  MISS:        105
cpu0_L1I RFO       ACCESS:          0  HIT:          0  MISS:          0
cpu0_L1I PREFETCH  ACCESS:          0  HIT:          0  MISS:          0
cpu0_L1I WRITEBACK ACCESS:          0  HIT:          0  MISS:          0
cpu0_L1I TRANSLATION ACCESS:          0  HIT:          0  MISS:          0
cpu0_L1I PREFETCH  REQUESTED:          0  ISSUED:          0  USEFUL:          0  USELESS:          0
cpu0_L1I AVERAGE MISS LATENCY: 108.676 cycles
cpu0_STLB TOTAL     ACCESS:      14239  HIT:      13784  MISS:        455
cpu0_STLB LOAD      ACCESS:       7804  HIT:       7796  MISS:          8
cpu0_STLB RFO       ACCESS:       6435  HIT:       5988  MISS:        447
cpu0_STLB PREFETCH  ACCESS:          0  HIT:          0  MISS:          0
cpu0_STLB WRITEBACK ACCESS:          0  HIT:          0  MISS:          0
cpu0_STLB TRANSLATION ACCESS:          0  HIT:          0  MISS:          0
cpu0_STLB PREFETCH  REQUESTED:          0  ISSUED:          0  USEFUL:          0  USELESS:          0
cpu0_STLB AVERAGE MISS LATENCY: 184.429 cycles
cpu0_L1D TOTAL     ACCESS:   33469091  HIT:   32999015  MISS:     470076
cpu0_L1D LOAD      ACCESS:   28673491  HIT:   28512146  MISS:     161345
cpu0_L1D RFO       ACCESS:    4795146  HIT:    4486438  MISS:     308708
cpu0_L1D PREFETCH  ACCESS:          0  HIT:          0  MISS:          0
cpu0_L1D WRITEBACK ACCESS:          0  HIT:          0  MISS:          0
cpu0_L1D TRANSLATION ACCESS:        454  HIT:        431  MISS:         23
cpu0_L1D PREFETCH  REQUESTED:          0  ISSUED:          0  USEFUL:          0  USELESS:          0
cpu0_L1D AVERAGE MISS LATENCY: 252.947 cycles
cpu0_L2C TOTAL     ACCESS:     777146  HIT:     472223  MISS:     304923
cpu0_L2C LOAD      ACCESS:     161450  HIT:     149216  MISS:      12234
cpu0_L2C RFO       ACCESS:     308708  HIT:      16074  MISS:     292634
cpu0_L2C PREFETCH  ACCESS:          0  HIT:          0  MISS:          0
cpu0_L2C WRITEBACK ACCESS:     306965  HIT:     306918  MISS:         47
cpu0_L2C TRANSLATION ACCESS:         23  HIT:         15  MISS:          8
cpu0_L2C PREFETCH  REQUESTED:          0  ISSUED:          0  USEFUL:          0  USELESS:          0
cpu0_L2C AVERAGE MISS LATENCY: 373.011 cycles
LLC TOTAL     ACCESS:     596359  HIT:     450717  MISS:     145642
LLC LOAD      ACCESS:      12233  HIT:      10579  MISS:       1654
LLC RFO       ACCESS:     292633  HIT:     209164  MISS:      83469
LLC PREFETCH  ACCESS:          0  HIT:          0  MISS:          0
LLC WRITEBACK ACCESS:     291485  HIT:     230970  MISS:      60515
LLC TRANSLATION ACCESS:          8  HIT:          4  MISS:          4
LLC PREFETCH  REQUESTED:          0  ISSUED:          0  USEFUL:          0  USELESS:          0
LLC AVERAGE MISS LATENCY: 736.945 cycles
OPTgen accesses: 5335
OPTgen hits: 3762
OPTgen hit rate: 70.5155



DRAM Statistics
 CHANNEL 0
 RQ ROW_BUFFER_HIT:        983  ROW_BUFFER_MISS:      84137
 DBUS AVG_CONGESTED_CYCLE:     3.9944
 WQ ROW_BUFFER_HIT:       4139  ROW_BUFFER_MISS:      79309  FULL:      10836


CPU 0 Branch Prediction Accuracy: 98.9368% MPKI: 0.40856 Average ROB Occupancy at Mispredict: 252.374
Branch type MPKI
BRANCH_DIRECT_JUMP: 0.00016
BRANCH_INDIRECT: 0.00157
BRANCH_CONDITIONAL: 0.40659
BRANCH_DIRECT_CALL: 9e-05
BRANCH_INDIRECT_CALL: 3e-05
BRANCH_RETURN: 0.00012

