
*** ChampSim Multicore Out-of-Order Simulator ***

Warmup Instructions: 10000000
Simulation Instructions: 100000000
Number of CPUs: 1
Off-chip DRAM Size: 4 GiB Channels: 1 Width: 64-bit Data Rate: 3200 MT/s

VirtualMemory physical capacity: 8588881920 num_ppages: 2096895
VirtualMemory page size: 4096 log2_page_size: 12

CPU 0 runs /datasets/cs240c-wi22-a00-public/data/Assignment2/hmmer_397B.trace.xz
CPU 0 Bimodal branch predictor
Basic BTB sets: 1024 ways: 8 indirect buffer size: 4096 RAS size: 64
Initialize Hawkeye state
Heartbeat CPU 0 instructions: 10000000 cycles: 3996187 heartbeat IPC: 2.50239 cumulative IPC: 2.50239 (Simulation time: 0 hr 1 min 2 sec) 

Warmup complete CPU 0 instructions: 10000005 cycles: 3996190 (Simulation time: 0 hr 1 min 2 sec) 

Heartbeat CPU 0 instructions: 20000002 cycles: 9356060 heartbeat IPC: 1.86572 cumulative IPC: 1.86572 (Simulation time: 0 hr 2 min 29 sec) 
Heartbeat CPU 0 instructions: 30000003 cycles: 14254476 heartbeat IPC: 2.04148 cumulative IPC: 1.94964 (Simulation time: 0 hr 3 min 55 sec) 
Heartbeat CPU 0 instructions: 40000003 cycles: 19063537 heartbeat IPC: 2.07941 cumulative IPC: 1.99106 (Simulation time: 0 hr 5 min 21 sec) 
Heartbeat CPU 0 instructions: 50000001 cycles: 24305430 heartbeat IPC: 1.90771 cumulative IPC: 1.96955 (Simulation time: 0 hr 6 min 50 sec) 
Heartbeat CPU 0 instructions: 60000002 cycles: 28902858 heartbeat IPC: 2.17513 cumulative IPC: 2.00749 (Simulation time: 0 hr 8 min 15 sec) 
Heartbeat CPU 0 instructions: 70000004 cycles: 33533891 heartbeat IPC: 2.15935 cumulative IPC: 2.0313 (Simulation time: 0 hr 9 min 40 sec) 
Heartbeat CPU 0 instructions: 80000000 cycles: 37886161 heartbeat IPC: 2.29765 cumulative IPC: 2.06551 (Simulation time: 0 hr 11 min 4 sec) 
Heartbeat CPU 0 instructions: 90000004 cycles: 42245316 heartbeat IPC: 2.29402 cumulative IPC: 2.09155 (Simulation time: 0 hr 12 min 27 sec) 
Heartbeat CPU 0 instructions: 100000003 cycles: 46581138 heartbeat IPC: 2.30637 cumulative IPC: 2.11342 (Simulation time: 0 hr 13 min 48 sec) 
Heartbeat CPU 0 instructions: 110000001 cycles: 50928632 heartbeat IPC: 2.30018 cumulative IPC: 2.13072 (Simulation time: 0 hr 15 min 10 sec) 
Finished CPU 0 instructions: 100000001 cycles: 46932443 cumulative IPC: 2.13072 (Simulation time: 0 hr 15 min 10 sec) 

ChampSim completed all CPUs

Region of Interest Statistics

CPU 0 cumulative IPC: 2.13072 instructions: 100000001 cycles: 46932443
cpu0_DTLB TOTAL     ACCESS:   40463983  HIT:   40456033  MISS:       7950
cpu0_DTLB LOAD      ACCESS:   32301157  HIT:   32298287  MISS:       2870
cpu0_DTLB RFO       ACCESS:    8162826  HIT:    8157746  MISS:       5080
cpu0_DTLB PREFETCH  ACCESS:          0  HIT:          0  MISS:          0
cpu0_DTLB WRITEBACK ACCESS:          0  HIT:          0  MISS:          0
cpu0_DTLB TRANSLATION ACCESS:          0  HIT:          0  MISS:          0
cpu0_DTLB PREFETCH  REQUESTED:          0  ISSUED:          0  USEFUL:          0  USELESS:          0
cpu0_DTLB AVERAGE MISS LATENCY: 25.0668 cycles
cpu0_ITLB TOTAL     ACCESS:     796387  HIT:     796280  MISS:        107
cpu0_ITLB LOAD      ACCESS:     796387  HIT:     796280  MISS:        107
cpu0_ITLB RFO       ACCESS:          0  HIT:          0  MISS:          0
cpu0_ITLB PREFETCH  ACCESS:          0  HIT:          0  MISS:          0
cpu0_ITLB WRITEBACK ACCESS:          0  HIT:          0  MISS:          0
cpu0_ITLB TRANSLATION ACCESS:          0  HIT:          0  MISS:          0
cpu0_ITLB PREFETCH  REQUESTED:          0  ISSUED:          0  USEFUL:          0  USELESS:          0
cpu0_ITLB AVERAGE MISS LATENCY: 79.271 cycles
cpu0_L1I TOTAL     ACCESS:      64638  HIT:      64302  MISS:        336
cpu0_L1I LOAD      ACCESS:      64638  HIT:      64302  MISS:        336
cpu0_L1I RFO       ACCESS:          0  HIT:          0  MISS:          0
cpu0_L1I PREFETCH  ACCESS:          0  HIT:          0  MISS:          0
cpu0_L1I WRITEBACK ACCESS:          0  HIT:          0  MISS:          0
cpu0_L1I TRANSLATION ACCESS:          0  HIT:          0  MISS:          0
cpu0_L1I PREFETCH  REQUESTED:          0  ISSUED:          0  USEFUL:          0  USELESS:          0
cpu0_L1I AVERAGE MISS LATENCY: 301.619 cycles
cpu0_STLB TOTAL     ACCESS:       8057  HIT:       7277  MISS:        780
cpu0_STLB LOAD      ACCESS:       2977  HIT:       2810  MISS:        167
cpu0_STLB RFO       ACCESS:       5080  HIT:       4467  MISS:        613
cpu0_STLB PREFETCH  ACCESS:          0  HIT:          0  MISS:          0
cpu0_STLB WRITEBACK ACCESS:          0  HIT:          0  MISS:          0
cpu0_STLB TRANSLATION ACCESS:          0  HIT:          0  MISS:          0
cpu0_STLB PREFETCH  REQUESTED:          0  ISSUED:          0  USEFUL:          0  USELESS:          0
cpu0_STLB AVERAGE MISS LATENCY: 173.308 cycles
cpu0_L1D TOTAL     ACCESS:   32933008  HIT:   32467267  MISS:     465741
cpu0_L1D LOAD      ACCESS:   28662397  HIT:   28505823  MISS:     156574
cpu0_L1D RFO       ACCESS:    4269840  HIT:    3960855  MISS:     308985
cpu0_L1D PREFETCH  ACCESS:          0  HIT:          0  MISS:          0
cpu0_L1D WRITEBACK ACCESS:          0  HIT:          0  MISS:          0
cpu0_L1D TRANSLATION ACCESS:        771  HIT:        589  MISS:        182
cpu0_L1D PREFETCH  REQUESTED:          0  ISSUED:          0  USEFUL:          0  USELESS:          0
cpu0_L1D AVERAGE MISS LATENCY: 320.473 cycles
cpu0_L2C TOTAL     ACCESS:     772898  HIT:     485691  MISS:     287207
cpu0_L2C LOAD      ACCESS:     156910  HIT:     142210  MISS:      14700
cpu0_L2C RFO       ACCESS:     308985  HIT:      36532  MISS:     272453
cpu0_L2C PREFETCH  ACCESS:          0  HIT:          0  MISS:          0
cpu0_L2C WRITEBACK ACCESS:     306821  HIT:     306784  MISS:         37
cpu0_L2C TRANSLATION ACCESS:        182  HIT:        165  MISS:         17
cpu0_L2C PREFETCH  REQUESTED:          0  ISSUED:          0  USEFUL:          0  USELESS:          0
cpu0_L2C AVERAGE MISS LATENCY: 502.173 cycles
LLC TOTAL     ACCESS:     558058  HIT:     353694  MISS:     204364
LLC LOAD      ACCESS:      14700  HIT:      11441  MISS:       3259
LLC RFO       ACCESS:     272306  HIT:     148472  MISS:     123834
LLC PREFETCH  ACCESS:          0  HIT:          0  MISS:          0
LLC WRITEBACK ACCESS:     271035  HIT:     193769  MISS:      77266
LLC TRANSLATION ACCESS:         17  HIT:         12  MISS:          5
LLC PREFETCH  REQUESTED:          0  ISSUED:          0  USEFUL:          0  USELESS:          0
LLC AVERAGE MISS LATENCY: 676.244 cycles
OPTgen accesses: 5079
OPTgen hits: 3120
OPTgen hit rate: 61.4294



DRAM Statistics
 CHANNEL 0
 RQ ROW_BUFFER_HIT:       1920  ROW_BUFFER_MISS:     125177
 DBUS AVG_CONGESTED_CYCLE:    3.99312
 WQ ROW_BUFFER_HIT:       8404  ROW_BUFFER_MISS:     115809  FULL:        895


CPU 0 Branch Prediction Accuracy: 98.9257% MPKI: 0.41399 Average ROB Occupancy at Mispredict: 249.866
Branch type MPKI
BRANCH_DIRECT_JUMP: 0.00081
BRANCH_INDIRECT: 0.00176
BRANCH_CONDITIONAL: 0.40978
BRANCH_DIRECT_CALL: 0.00081
BRANCH_INDIRECT_CALL: 2e-05
BRANCH_RETURN: 0.00081

