
*** ChampSim Multicore Out-of-Order Simulator ***

Warmup Instructions: 10000000
Simulation Instructions: 100000000
Number of CPUs: 1
Off-chip DRAM Size: 4 GiB Channels: 1 Width: 64-bit Data Rate: 3200 MT/s

VirtualMemory physical capacity: 8588881920 num_ppages: 2096895
VirtualMemory page size: 4096 log2_page_size: 12

CPU 0 runs /datasets/cs240c-wi22-a00-public/data/Assignment2/lbm_94B.trace.xz
CPU 0 Bimodal branch predictor
Basic BTB sets: 1024 ways: 8 indirect buffer size: 4096 RAS size: 64
Initialize Hawkeye state
Heartbeat CPU 0 instructions: 10000000 cycles: 2544744 heartbeat IPC: 3.92967 cumulative IPC: 3.92967 (Simulation time: 0 hr 0 min 31 sec) 

Warmup complete CPU 0 instructions: 10000004 cycles: 2544745 (Simulation time: 0 hr 0 min 31 sec) 

Heartbeat CPU 0 instructions: 20000000 cycles: 34487567 heartbeat IPC: 0.313059 cumulative IPC: 0.313059 (Simulation time: 0 hr 3 min 10 sec) 
Heartbeat CPU 0 instructions: 30000004 cycles: 66993636 heartbeat IPC: 0.307635 cumulative IPC: 0.310323 (Simulation time: 0 hr 5 min 50 sec) 
Heartbeat CPU 0 instructions: 40000000 cycles: 98164668 heartbeat IPC: 0.320811 cumulative IPC: 0.313742 (Simulation time: 0 hr 8 min 25 sec) 
Heartbeat CPU 0 instructions: 50000001 cycles: 128131945 heartbeat IPC: 0.333697 cumulative IPC: 0.318504 (Simulation time: 0 hr 10 min 52 sec) 
Heartbeat CPU 0 instructions: 60000003 cycles: 157551965 heartbeat IPC: 0.339905 cumulative IPC: 0.322566 (Simulation time: 0 hr 13 min 16 sec) 
Heartbeat CPU 0 instructions: 70000001 cycles: 186889884 heartbeat IPC: 0.340856 cumulative IPC: 0.325476 (Simulation time: 0 hr 15 min 41 sec) 
Heartbeat CPU 0 instructions: 80000003 cycles: 217018934 heartbeat IPC: 0.331906 cumulative IPC: 0.32638 (Simulation time: 0 hr 18 min 11 sec) 
Heartbeat CPU 0 instructions: 90000003 cycles: 247761468 heartbeat IPC: 0.325282 cumulative IPC: 0.326242 (Simulation time: 0 hr 20 min 37 sec) 
Heartbeat CPU 0 instructions: 100000001 cycles: 277185047 heartbeat IPC: 0.339863 cumulative IPC: 0.327701 (Simulation time: 0 hr 22 min 58 sec) 
Heartbeat CPU 0 instructions: 110000003 cycles: 307208227 heartbeat IPC: 0.333076 cumulative IPC: 0.328231 (Simulation time: 0 hr 25 min 25 sec) 
Finished CPU 0 instructions: 100000004 cycles: 304663483 cumulative IPC: 0.328231 (Simulation time: 0 hr 25 min 25 sec) 

ChampSim completed all CPUs

Region of Interest Statistics

CPU 0 cumulative IPC: 0.328231 instructions: 100000004 cycles: 304663483
cpu0_DTLB TOTAL     ACCESS:   13206867  HIT:   13159116  MISS:      47751
cpu0_DTLB LOAD      ACCESS:    6753259  HIT:    6741312  MISS:      11947
cpu0_DTLB RFO       ACCESS:    6453608  HIT:    6417804  MISS:      35804
cpu0_DTLB PREFETCH  ACCESS:          0  HIT:          0  MISS:          0
cpu0_DTLB WRITEBACK ACCESS:          0  HIT:          0  MISS:          0
cpu0_DTLB TRANSLATION ACCESS:          0  HIT:          0  MISS:          0
cpu0_DTLB PREFETCH  REQUESTED:          0  ISSUED:          0  USEFUL:          0  USELESS:          0
cpu0_DTLB AVERAGE MISS LATENCY: 221.99 cycles
cpu0_ITLB TOTAL     ACCESS:     123346  HIT:     123346  MISS:          0
cpu0_ITLB LOAD      ACCESS:     123346  HIT:     123346  MISS:          0
cpu0_ITLB RFO       ACCESS:          0  HIT:          0  MISS:          0
cpu0_ITLB PREFETCH  ACCESS:          0  HIT:          0  MISS:          0
cpu0_ITLB WRITEBACK ACCESS:          0  HIT:          0  MISS:          0
cpu0_ITLB TRANSLATION ACCESS:          0  HIT:          0  MISS:          0
cpu0_ITLB PREFETCH  REQUESTED:          0  ISSUED:          0  USEFUL:          0  USELESS:          0
cpu0_ITLB AVERAGE MISS LATENCY: -nan cycles
cpu0_STLB TOTAL     ACCESS:      47751  HIT:          0  MISS:      47751
cpu0_STLB LOAD      ACCESS:      11947  HIT:          0  MISS:      11947
cpu0_STLB RFO       ACCESS:      35804  HIT:          0  MISS:      35804
cpu0_STLB PREFETCH  ACCESS:          0  HIT:          0  MISS:          0
cpu0_STLB WRITEBACK ACCESS:          0  HIT:          0  MISS:          0
cpu0_STLB TRANSLATION ACCESS:          0  HIT:          0  MISS:          0
cpu0_STLB PREFETCH  REQUESTED:          0  ISSUED:          0  USEFUL:          0  USELESS:          0
cpu0_STLB AVERAGE MISS LATENCY: 212.99 cycles
cpu0_L1D TOTAL     ACCESS:   14656171  HIT:    9617643  MISS:    5038528
cpu0_L1D LOAD      ACCESS:    4303854  HIT:    3540382  MISS:     763472
cpu0_L1D RFO       ACCESS:   10304566  HIT:    6029556  MISS:    4275010
cpu0_L1D PREFETCH  ACCESS:          0  HIT:          0  MISS:          0
cpu0_L1D WRITEBACK ACCESS:          0  HIT:          0  MISS:          0
cpu0_L1D TRANSLATION ACCESS:      47751  HIT:      47705  MISS:         46
cpu0_L1D PREFETCH  REQUESTED:          0  ISSUED:          0  USEFUL:          0  USELESS:          0
cpu0_L1D AVERAGE MISS LATENCY: 374.96 cycles
cpu0_L2C TOTAL     ACCESS:    9313537  HIT:    6258417  MISS:    3055120
cpu0_L2C LOAD      ACCESS:     763472  HIT:          1  MISS:     763471
cpu0_L2C RFO       ACCESS:    4275010  HIT:    1983503  MISS:    2291507
cpu0_L2C PREFETCH  ACCESS:          0  HIT:          0  MISS:          0
cpu0_L2C WRITEBACK ACCESS:    4275009  HIT:    4274913  MISS:         96
cpu0_L2C TRANSLATION ACCESS:         46  HIT:          0  MISS:         46
cpu0_L2C PREFETCH  REQUESTED:          0  ISSUED:          0  USEFUL:          0  USELESS:          0
cpu0_L2C AVERAGE MISS LATENCY: 598.744 cycles
LLC TOTAL     ACCESS:    5346803  HIT:    1663693  MISS:    3683110
LLC LOAD      ACCESS:     763471  HIT:         28  MISS:     763443
LLC RFO       ACCESS:    2291506  HIT:     631420  MISS:    1660086
LLC PREFETCH  ACCESS:          0  HIT:          0  MISS:          0
LLC WRITEBACK ACCESS:    2291780  HIT:    1032236  MISS:    1259544
LLC TRANSLATION ACCESS:         46  HIT:          9  MISS:         37
LLC PREFETCH  REQUESTED:          0  ISSUED:          0  USEFUL:          0  USELESS:          0
LLC AVERAGE MISS LATENCY: 479.236 cycles
OPTgen accesses: 53122
OPTgen hits: 14200
OPTgen hit rate: 26.7309



DRAM Statistics
 CHANNEL 0
 RQ ROW_BUFFER_HIT:      37541  ROW_BUFFER_MISS:    2385827
 DBUS AVG_CONGESTED_CYCLE:    3.99366
 WQ ROW_BUFFER_HIT:      22668  ROW_BUFFER_MISS:    1916271  FULL:          1


CPU 0 Branch Prediction Accuracy: 99.132% MPKI: 0.10209 Average ROB Occupancy at Mispredict: 173.64
Branch type MPKI
BRANCH_DIRECT_JUMP: 0
BRANCH_INDIRECT: 0
BRANCH_CONDITIONAL: 0.10209
BRANCH_DIRECT_CALL: 0
BRANCH_INDIRECT_CALL: 0
BRANCH_RETURN: 0

