
*** ChampSim Multicore Out-of-Order Simulator ***

Warmup Instructions: 10000000
Simulation Instructions: 100000000
Number of CPUs: 1
Off-chip DRAM Size: 4 GiB Channels: 1 Width: 64-bit Data Rate: 3200 MT/s

VirtualMemory physical capacity: 8588881920 num_ppages: 2096895
VirtualMemory page size: 4096 log2_page_size: 12

CPU 0 runs /datasets/cs240c-wi22-a00-public/data/Assignment2/libquantum_1735B.trace.xz
CPU 0 Bimodal branch predictor
Basic BTB sets: 1024 ways: 8 indirect buffer size: 4096 RAS size: 64
Initialize Hawkeye state
Heartbeat CPU 0 instructions: 10000002 cycles: 2500058 heartbeat IPC: 3.99991 cumulative IPC: 3.99991 (Simulation time: 0 hr 0 min 27 sec) 

Warmup complete CPU 0 instructions: 10000002 cycles: 2500058 (Simulation time: 0 hr 0 min 27 sec) 

Heartbeat CPU 0 instructions: 20000003 cycles: 36704076 heartbeat IPC: 0.292363 cumulative IPC: 0.292363 (Simulation time: 0 hr 1 min 50 sec) 
Heartbeat CPU 0 instructions: 30000001 cycles: 70099536 heartbeat IPC: 0.299442 cumulative IPC: 0.29586 (Simulation time: 0 hr 3 min 10 sec) 
Heartbeat CPU 0 instructions: 40000003 cycles: 108223783 heartbeat IPC: 0.2623 cumulative IPC: 0.283758 (Simulation time: 0 hr 4 min 36 sec) 
Heartbeat CPU 0 instructions: 50000002 cycles: 145521013 heartbeat IPC: 0.268116 cumulative IPC: 0.279679 (Simulation time: 0 hr 5 min 57 sec) 
Heartbeat CPU 0 instructions: 60000001 cycles: 150540354 heartbeat IPC: 1.99229 cumulative IPC: 0.337746 (Simulation time: 0 hr 6 min 49 sec) 
Heartbeat CPU 0 instructions: 70000002 cycles: 155627328 heartbeat IPC: 1.96581 cumulative IPC: 0.391831 (Simulation time: 0 hr 7 min 40 sec) 
Heartbeat CPU 0 instructions: 80000000 cycles: 193410711 heartbeat IPC: 0.264667 cumulative IPC: 0.366664 (Simulation time: 0 hr 9 min 3 sec) 
Heartbeat CPU 0 instructions: 90000000 cycles: 232018161 heartbeat IPC: 0.259017 cumulative IPC: 0.348556 (Simulation time: 0 hr 10 min 24 sec) 
Heartbeat CPU 0 instructions: 100000000 cycles: 290357122 heartbeat IPC: 0.171412 cumulative IPC: 0.312655 (Simulation time: 0 hr 12 min 10 sec) 
Heartbeat CPU 0 instructions: 110000003 cycles: 329532067 heartbeat IPC: 0.255265 cumulative IPC: 0.30578 (Simulation time: 0 hr 13 min 33 sec) 
Finished CPU 0 instructions: 100000001 cycles: 327032009 cumulative IPC: 0.30578 (Simulation time: 0 hr 13 min 33 sec) 

ChampSim completed all CPUs

Region of Interest Statistics

CPU 0 cumulative IPC: 0.30578 instructions: 100000001 cycles: 327032009
cpu0_DTLB TOTAL     ACCESS:    9927613  HIT:    9884010  MISS:      43603
cpu0_DTLB LOAD      ACCESS:    8294525  HIT:    8250927  MISS:      43598
cpu0_DTLB RFO       ACCESS:    1633088  HIT:    1633083  MISS:          5
cpu0_DTLB PREFETCH  ACCESS:          0  HIT:          0  MISS:          0
cpu0_DTLB WRITEBACK ACCESS:          0  HIT:          0  MISS:          0
cpu0_DTLB TRANSLATION ACCESS:          0  HIT:          0  MISS:          0
cpu0_DTLB PREFETCH  REQUESTED:          0  ISSUED:          0  USEFUL:          0  USELESS:          0
cpu0_DTLB AVERAGE MISS LATENCY: 35.7318 cycles
cpu0_ITLB TOTAL     ACCESS:    4579402  HIT:    4579402  MISS:          0
cpu0_ITLB LOAD      ACCESS:    4579402  HIT:    4579402  MISS:          0
cpu0_ITLB RFO       ACCESS:          0  HIT:          0  MISS:          0
cpu0_ITLB PREFETCH  ACCESS:          0  HIT:          0  MISS:          0
cpu0_ITLB WRITEBACK ACCESS:          0  HIT:          0  MISS:          0
cpu0_ITLB TRANSLATION ACCESS:          0  HIT:          0  MISS:          0
cpu0_ITLB PREFETCH  REQUESTED:          0  ISSUED:          0  USEFUL:          0  USELESS:          0
cpu0_ITLB AVERAGE MISS LATENCY: -nan cycles
cpu0_L1I TOTAL     ACCESS:         20  HIT:         11  MISS:          9
cpu0_L1I LOAD      ACCESS:         20  HIT:         11  MISS:          9
cpu0_L1I RFO       ACCESS:          0  HIT:          0  MISS:          0
cpu0_L1I PREFETCH  ACCESS:          0  HIT:          0  MISS:          0
cpu0_L1I WRITEBACK ACCESS:          0  HIT:          0  MISS:          0
cpu0_L1I TRANSLATION ACCESS:          0  HIT:          0  MISS:          0
cpu0_L1I PREFETCH  REQUESTED:          0  ISSUED:          0  USEFUL:          0  USELESS:          0
cpu0_L1I AVERAGE MISS LATENCY: 236.667 cycles
cpu0_STLB TOTAL     ACCESS:      43603  HIT:          0  MISS:      43603
cpu0_STLB LOAD      ACCESS:      43598  HIT:          0  MISS:      43598
cpu0_STLB RFO       ACCESS:          5  HIT:          0  MISS:          5
cpu0_STLB PREFETCH  ACCESS:          0  HIT:          0  MISS:          0
cpu0_STLB WRITEBACK ACCESS:          0  HIT:          0  MISS:          0
cpu0_STLB TRANSLATION ACCESS:          0  HIT:          0  MISS:          0
cpu0_STLB PREFETCH  REQUESTED:          0  ISSUED:          0  USEFUL:          0  USELESS:          0
cpu0_STLB AVERAGE MISS LATENCY: 26.7318 cycles
cpu0_L1D TOTAL     ACCESS:    6545956  HIT:    3756523  MISS:    2789433
cpu0_L1D LOAD      ACCESS:    4613848  HIT:    1824465  MISS:    2789383
cpu0_L1D RFO       ACCESS:    1888505  HIT:    1888485  MISS:         20
cpu0_L1D PREFETCH  ACCESS:          0  HIT:          0  MISS:          0
cpu0_L1D WRITEBACK ACCESS:          0  HIT:          0  MISS:          0
cpu0_L1D TRANSLATION ACCESS:      43603  HIT:      43573  MISS:         30
cpu0_L1D PREFETCH  REQUESTED:          0  ISSUED:          0  USEFUL:          0  USELESS:          0
cpu0_L1D AVERAGE MISS LATENCY: 163.437 cycles
cpu0_L2C TOTAL     ACCESS:    3804021  HIT:    1014579  MISS:    2789442
cpu0_L2C LOAD      ACCESS:    2789392  HIT:          0  MISS:    2789392
cpu0_L2C RFO       ACCESS:         20  HIT:          0  MISS:         20
cpu0_L2C PREFETCH  ACCESS:          0  HIT:          0  MISS:          0
cpu0_L2C WRITEBACK ACCESS:    1014579  HIT:    1014579  MISS:          0
cpu0_L2C TRANSLATION ACCESS:         30  HIT:          0  MISS:         30
cpu0_L2C PREFETCH  REQUESTED:          0  ISSUED:          0  USEFUL:          0  USELESS:          0
cpu0_L2C AVERAGE MISS LATENCY: 152.433 cycles
LLC TOTAL     ACCESS:    3798498  HIT:     154448  MISS:    3644050
LLC LOAD      ACCESS:    2789392  HIT:     126188  MISS:    2663204
LLC RFO       ACCESS:         20  HIT:         15  MISS:          5
LLC PREFETCH  ACCESS:          0  HIT:          0  MISS:          0
LLC WRITEBACK ACCESS:    1009056  HIT:      28230  MISS:     980826
LLC TRANSLATION ACCESS:         30  HIT:         15  MISS:         15
LLC PREFETCH  REQUESTED:          0  ISSUED:          0  USEFUL:          0  USELESS:          0
LLC AVERAGE MISS LATENCY: 100.592 cycles
OPTgen accesses: 47722
OPTgen hits: 913
OPTgen hit rate: 1.91316



DRAM Statistics
 CHANNEL 0
 RQ ROW_BUFFER_HIT:    1369223  ROW_BUFFER_MISS:    1294001
 DBUS AVG_CONGESTED_CYCLE:    3.75444
 WQ ROW_BUFFER_HIT:     340955  ROW_BUFFER_MISS:     658600  FULL:      31358


CPU 0 Branch Prediction Accuracy: 89.0086% MPKI: 24.5272 Average ROB Occupancy at Mispredict: 3.91516
Branch type MPKI
BRANCH_DIRECT_JUMP: 2e-05
BRANCH_INDIRECT: 0
BRANCH_CONDITIONAL: 24.527
BRANCH_DIRECT_CALL: 8e-05
BRANCH_INDIRECT_CALL: 0
BRANCH_RETURN: 8e-05

