
*** ChampSim Multicore Out-of-Order Simulator ***

Warmup Instructions: 10000000
Simulation Instructions: 100000000
Number of CPUs: 1
Off-chip DRAM Size: 4 GiB Channels: 1 Width: 64-bit Data Rate: 3200 MT/s

VirtualMemory physical capacity: 8588881920 num_ppages: 2096895
VirtualMemory page size: 4096 log2_page_size: 12

CPU 0 runs /datasets/cs240c-wi22-a00-public/data/Assignment2/omnetpp_17B.trace.xz
CPU 0 Bimodal branch predictor
Basic BTB sets: 1024 ways: 8 indirect buffer size: 4096 RAS size: 64
Initialize Hawkeye state
Heartbeat CPU 0 instructions: 10000002 cycles: 2500125 heartbeat IPC: 3.9998 cumulative IPC: 3.9998 (Simulation time: 0 hr 0 min 27 sec) 

Warmup complete CPU 0 instructions: 10000002 cycles: 2500125 (Simulation time: 0 hr 0 min 27 sec) 

Heartbeat CPU 0 instructions: 20000003 cycles: 8430873 heartbeat IPC: 1.68613 cumulative IPC: 1.68613 (Simulation time: 0 hr 1 min 1 sec) 
Heartbeat CPU 0 instructions: 30000000 cycles: 17606530 heartbeat IPC: 1.08984 cumulative IPC: 1.32394 (Simulation time: 0 hr 1 min 59 sec) 
Heartbeat CPU 0 instructions: 40000001 cycles: 27304511 heartbeat IPC: 1.03114 cumulative IPC: 1.20946 (Simulation time: 0 hr 3 min 1 sec) 
Heartbeat CPU 0 instructions: 50000001 cycles: 34133947 heartbeat IPC: 1.46425 cumulative IPC: 1.26447 (Simulation time: 0 hr 3 min 40 sec) 
Heartbeat CPU 0 instructions: 60000001 cycles: 41532298 heartbeat IPC: 1.35165 cumulative IPC: 1.28099 (Simulation time: 0 hr 4 min 24 sec) 
Heartbeat CPU 0 instructions: 70000000 cycles: 50879354 heartbeat IPC: 1.06986 cumulative IPC: 1.2402 (Simulation time: 0 hr 5 min 24 sec) 
Heartbeat CPU 0 instructions: 80000002 cycles: 60308928 heartbeat IPC: 1.06049 cumulative IPC: 1.21089 (Simulation time: 0 hr 6 min 24 sec) 
Heartbeat CPU 0 instructions: 90000003 cycles: 69628378 heartbeat IPC: 1.07302 cumulative IPC: 1.19175 (Simulation time: 0 hr 7 min 25 sec) 
Heartbeat CPU 0 instructions: 100000002 cycles: 74972703 heartbeat IPC: 1.87114 cumulative IPC: 1.24185 (Simulation time: 0 hr 7 min 54 sec) 
Heartbeat CPU 0 instructions: 110000001 cycles: 84219484 heartbeat IPC: 1.08146 cumulative IPC: 1.2237 (Simulation time: 0 hr 8 min 53 sec) 
Finished CPU 0 instructions: 100000004 cycles: 81719366 cumulative IPC: 1.2237 (Simulation time: 0 hr 8 min 53 sec) 

ChampSim completed all CPUs

Region of Interest Statistics

CPU 0 cumulative IPC: 1.2237 instructions: 100000004 cycles: 81719366
cpu0_DTLB TOTAL     ACCESS:   10200220  HIT:    9135406  MISS:    1064814
cpu0_DTLB LOAD      ACCESS:    8262772  HIT:    7199838  MISS:    1062934
cpu0_DTLB RFO       ACCESS:    1937448  HIT:    1935568  MISS:       1880
cpu0_DTLB PREFETCH  ACCESS:          0  HIT:          0  MISS:          0
cpu0_DTLB WRITEBACK ACCESS:          0  HIT:          0  MISS:          0
cpu0_DTLB TRANSLATION ACCESS:          0  HIT:          0  MISS:          0
cpu0_DTLB PREFETCH  REQUESTED:          0  ISSUED:          0  USEFUL:          0  USELESS:          0
cpu0_DTLB AVERAGE MISS LATENCY: 21.1096 cycles
cpu0_ITLB TOTAL     ACCESS:    8332747  HIT:    8330690  MISS:       2057
cpu0_ITLB LOAD      ACCESS:    8332747  HIT:    8330690  MISS:       2057
cpu0_ITLB RFO       ACCESS:          0  HIT:          0  MISS:          0
cpu0_ITLB PREFETCH  ACCESS:          0  HIT:          0  MISS:          0
cpu0_ITLB WRITEBACK ACCESS:          0  HIT:          0  MISS:          0
cpu0_ITLB TRANSLATION ACCESS:          0  HIT:          0  MISS:          0
cpu0_ITLB PREFETCH  REQUESTED:          0  ISSUED:          0  USEFUL:          0  USELESS:          0
cpu0_ITLB AVERAGE MISS LATENCY: 15.6315 cycles
cpu0_L1I TOTAL     ACCESS:    1054828  HIT:    1050499  MISS:       4329
cpu0_L1I LOAD      ACCESS:    1054828  HIT:    1050499  MISS:       4329
cpu0_L1I RFO       ACCESS:          0  HIT:          0  MISS:          0
cpu0_L1I PREFETCH  ACCESS:          0  HIT:          0  MISS:          0
cpu0_L1I WRITEBACK ACCESS:          0  HIT:          0  MISS:          0
cpu0_L1I TRANSLATION ACCESS:          0  HIT:          0  MISS:          0
cpu0_L1I PREFETCH  REQUESTED:          0  ISSUED:          0  USEFUL:          0  USELESS:          0
cpu0_L1I AVERAGE MISS LATENCY: 92.4248 cycles
cpu0_STLB TOTAL     ACCESS:    1066871  HIT:      12756  MISS:    1054115
cpu0_STLB LOAD      ACCESS:    1064991  HIT:      11392  MISS:    1053599
cpu0_STLB RFO       ACCESS:       1880  HIT:       1364  MISS:        516
cpu0_STLB PREFETCH  ACCESS:          0  HIT:          0  MISS:          0
cpu0_STLB WRITEBACK ACCESS:          0  HIT:          0  MISS:          0
cpu0_STLB TRANSLATION ACCESS:          0  HIT:          0  MISS:          0
cpu0_STLB PREFETCH  REQUESTED:          0  ISSUED:          0  USEFUL:          0  USELESS:          0
cpu0_STLB AVERAGE MISS LATENCY: 11.7784 cycles
cpu0_L1D TOTAL     ACCESS:   10195580  HIT:    8441134  MISS:    1754446
cpu0_L1D LOAD      ACCESS:    6381995  HIT:    4641706  MISS:    1740289
cpu0_L1D RFO       ACCESS:    3337696  HIT:    3324638  MISS:      13058
cpu0_L1D PREFETCH  ACCESS:          0  HIT:          0  MISS:          0
cpu0_L1D WRITEBACK ACCESS:          0  HIT:          0  MISS:          0
cpu0_L1D TRANSLATION ACCESS:     475889  HIT:     474790  MISS:       1099
cpu0_L1D PREFETCH  REQUESTED:          0  ISSUED:          0  USEFUL:          0  USELESS:          0
cpu0_L1D AVERAGE MISS LATENCY: 201.917 cycles
cpu0_L2C TOTAL     ACCESS:    1775591  HIT:      23315  MISS:    1752276
cpu0_L2C LOAD      ACCESS:    1744618  HIT:       5922  MISS:    1738696
cpu0_L2C RFO       ACCESS:      13058  HIT:        137  MISS:      12921
cpu0_L2C PREFETCH  ACCESS:          0  HIT:          0  MISS:          0
cpu0_L2C WRITEBACK ACCESS:      16816  HIT:      16816  MISS:          0
cpu0_L2C TRANSLATION ACCESS:       1099  HIT:        440  MISS:        659
cpu0_L2C PREFETCH  REQUESTED:          0  ISSUED:          0  USEFUL:          0  USELESS:          0
cpu0_L2C AVERAGE MISS LATENCY: 190.821 cycles
LLC TOTAL     ACCESS:    1768988  HIT:    1067849  MISS:     701139
LLC LOAD      ACCESS:    1738696  HIT:    1056238  MISS:     682458
LLC RFO       ACCESS:      12921  HIT:       1764  MISS:      11157
LLC PREFETCH  ACCESS:          0  HIT:          0  MISS:          0
LLC WRITEBACK ACCESS:      16712  HIT:       9518  MISS:       7194
LLC TRANSLATION ACCESS:        659  HIT:        329  MISS:        330
LLC PREFETCH  REQUESTED:          0  ISSUED:          0  USEFUL:          0  USELESS:          0
LLC AVERAGE MISS LATENCY: 424.396 cycles
OPTgen accesses: 29542
OPTgen hits: 24322
OPTgen hit rate: 82.3302



DRAM Statistics
 CHANNEL 0
 RQ ROW_BUFFER_HIT:      14316  ROW_BUFFER_MISS:     679404
 DBUS AVG_CONGESTED_CYCLE:    3.97948
 WQ ROW_BUFFER_HIT:       1260  ROW_BUFFER_MISS:      11374  FULL:          0


CPU 0 Branch Prediction Accuracy: 97.6159% MPKI: 7.87238 Average ROB Occupancy at Mispredict: 63.3817
Branch type MPKI
BRANCH_DIRECT_JUMP: 0.00032
BRANCH_INDIRECT: 0.08474
BRANCH_CONDITIONAL: 7.75802
BRANCH_DIRECT_CALL: 0.00068
BRANCH_INDIRECT_CALL: 0.00292
BRANCH_RETURN: 0.0257

