
*** ChampSim Multicore Out-of-Order Simulator ***

Warmup Instructions: 10000000
Simulation Instructions: 100000000
Number of CPUs: 1
Off-chip DRAM Size: 4 GiB Channels: 1 Width: 64-bit Data Rate: 3200 MT/s

VirtualMemory physical capacity: 8588881920 num_ppages: 2096895
VirtualMemory page size: 4096 log2_page_size: 12

CPU 0 runs /datasets/cs240c-wi22-a00-public/data/Assignment2/omnetpp_4B.trace.xz
CPU 0 Bimodal branch predictor
Basic BTB sets: 1024 ways: 8 indirect buffer size: 4096 RAS size: 64
Initialize Hawkeye state
Heartbeat CPU 0 instructions: 10000002 cycles: 2526505 heartbeat IPC: 3.95804 cumulative IPC: 3.95804 (Simulation time: 0 hr 0 min 28 sec) 

Warmup complete CPU 0 instructions: 10000002 cycles: 2526505 (Simulation time: 0 hr 0 min 28 sec) 

Heartbeat CPU 0 instructions: 20000000 cycles: 9542419 heartbeat IPC: 1.42533 cumulative IPC: 1.42533 (Simulation time: 0 hr 1 min 10 sec) 
Heartbeat CPU 0 instructions: 30000001 cycles: 17332636 heartbeat IPC: 1.28366 cumulative IPC: 1.35079 (Simulation time: 0 hr 1 min 59 sec) 
Heartbeat CPU 0 instructions: 40000002 cycles: 25007608 heartbeat IPC: 1.30294 cumulative IPC: 1.33445 (Simulation time: 0 hr 2 min 47 sec) 
Heartbeat CPU 0 instructions: 50000000 cycles: 32434597 heartbeat IPC: 1.34644 cumulative IPC: 1.33743 (Simulation time: 0 hr 3 min 33 sec) 
Heartbeat CPU 0 instructions: 60000000 cycles: 40274119 heartbeat IPC: 1.27559 cumulative IPC: 1.32459 (Simulation time: 0 hr 4 min 23 sec) 
Heartbeat CPU 0 instructions: 70000000 cycles: 47678138 heartbeat IPC: 1.35062 cumulative IPC: 1.32886 (Simulation time: 0 hr 5 min 9 sec) 
Heartbeat CPU 0 instructions: 80000000 cycles: 55324803 heartbeat IPC: 1.30776 cumulative IPC: 1.3258 (Simulation time: 0 hr 5 min 58 sec) 
Heartbeat CPU 0 instructions: 90000000 cycles: 63426259 heartbeat IPC: 1.23435 cumulative IPC: 1.31363 (Simulation time: 0 hr 6 min 50 sec) 
Heartbeat CPU 0 instructions: 100000001 cycles: 70586362 heartbeat IPC: 1.39663 cumulative IPC: 1.32237 (Simulation time: 0 hr 7 min 33 sec) 
Heartbeat CPU 0 instructions: 110000002 cycles: 78517147 heartbeat IPC: 1.26091 cumulative IPC: 1.31595 (Simulation time: 0 hr 8 min 23 sec) 
Finished CPU 0 instructions: 100000000 cycles: 75990642 cumulative IPC: 1.31595 (Simulation time: 0 hr 8 min 23 sec) 

ChampSim completed all CPUs

Region of Interest Statistics

CPU 0 cumulative IPC: 1.31595 instructions: 100000000 cycles: 75990642
cpu0_DTLB TOTAL     ACCESS:   11764773  HIT:   10332866  MISS:    1431907
cpu0_DTLB LOAD      ACCESS:    9178634  HIT:    7748289  MISS:    1430345
cpu0_DTLB RFO       ACCESS:    2586139  HIT:    2584577  MISS:       1562
cpu0_DTLB PREFETCH  ACCESS:          0  HIT:          0  MISS:          0
cpu0_DTLB WRITEBACK ACCESS:          0  HIT:          0  MISS:          0
cpu0_DTLB TRANSLATION ACCESS:          0  HIT:          0  MISS:          0
cpu0_DTLB PREFETCH  REQUESTED:          0  ISSUED:          0  USEFUL:          0  USELESS:          0
cpu0_DTLB AVERAGE MISS LATENCY: 17.6781 cycles
cpu0_ITLB TOTAL     ACCESS:    7987535  HIT:    7963368  MISS:      24167
cpu0_ITLB LOAD      ACCESS:    7987535  HIT:    7963368  MISS:      24167
cpu0_ITLB RFO       ACCESS:          0  HIT:          0  MISS:          0
cpu0_ITLB PREFETCH  ACCESS:          0  HIT:          0  MISS:          0
cpu0_ITLB WRITEBACK ACCESS:          0  HIT:          0  MISS:          0
cpu0_ITLB TRANSLATION ACCESS:          0  HIT:          0  MISS:          0
cpu0_ITLB PREFETCH  REQUESTED:          0  ISSUED:          0  USEFUL:          0  USELESS:          0
cpu0_ITLB AVERAGE MISS LATENCY: 10.843 cycles
cpu0_L1I TOTAL     ACCESS:    1939573  HIT:    1876727  MISS:      62846
cpu0_L1I LOAD      ACCESS:    1939573  HIT:    1876727  MISS:      62846
cpu0_L1I RFO       ACCESS:          0  HIT:          0  MISS:          0
cpu0_L1I PREFETCH  ACCESS:          0  HIT:          0  MISS:          0
cpu0_L1I WRITEBACK ACCESS:          0  HIT:          0  MISS:          0
cpu0_L1I TRANSLATION ACCESS:          0  HIT:          0  MISS:          0
cpu0_L1I PREFETCH  REQUESTED:          0  ISSUED:          0  USEFUL:          0  USELESS:          0
cpu0_L1I AVERAGE MISS LATENCY: 48.7123 cycles
cpu0_STLB TOTAL     ACCESS:    1456074  HIT:      23525  MISS:    1432549
cpu0_STLB LOAD      ACCESS:    1454512  HIT:      22780  MISS:    1431732
cpu0_STLB RFO       ACCESS:       1562  HIT:        745  MISS:        817
cpu0_STLB PREFETCH  ACCESS:          0  HIT:          0  MISS:          0
cpu0_STLB WRITEBACK ACCESS:          0  HIT:          0  MISS:          0
cpu0_STLB TRANSLATION ACCESS:          0  HIT:          0  MISS:          0
cpu0_STLB PREFETCH  REQUESTED:          0  ISSUED:          0  USEFUL:          0  USELESS:          0
cpu0_STLB AVERAGE MISS LATENCY: 8.2851 cycles
cpu0_L1D TOTAL     ACCESS:   12764585  HIT:   10274676  MISS:    2489909
cpu0_L1D LOAD      ACCESS:    7421549  HIT:    4970348  MISS:    2451201
cpu0_L1D RFO       ACCESS:    4650500  HIT:    4612787  MISS:      37713
cpu0_L1D PREFETCH  ACCESS:          0  HIT:          0  MISS:          0
cpu0_L1D WRITEBACK ACCESS:          0  HIT:          0  MISS:          0
cpu0_L1D TRANSLATION ACCESS:     692536  HIT:     691541  MISS:        995
cpu0_L1D PREFETCH  REQUESTED:          0  ISSUED:          0  USEFUL:          0  USELESS:          0
cpu0_L1D AVERAGE MISS LATENCY: 92.4178 cycles
cpu0_L2C TOTAL     ACCESS:    2633701  HIT:     114330  MISS:    2519371
cpu0_L2C LOAD      ACCESS:    2514046  HIT:      32391  MISS:    2481655
cpu0_L2C RFO       ACCESS:      37713  HIT:        794  MISS:      36919
cpu0_L2C PREFETCH  ACCESS:          0  HIT:          0  MISS:          0
cpu0_L2C WRITEBACK ACCESS:      80947  HIT:      80947  MISS:          0
cpu0_L2C TRANSLATION ACCESS:        995  HIT:        198  MISS:        797
cpu0_L2C PREFETCH  REQUESTED:          0  ISSUED:          0  USEFUL:          0  USELESS:          0
cpu0_L2C AVERAGE MISS LATENCY: 80.8634 cycles
LLC TOTAL     ACCESS:    2598909  HIT:    2088872  MISS:     510037
LLC LOAD      ACCESS:    2481653  HIT:    1997678  MISS:     483975
LLC RFO       ACCESS:      36919  HIT:      16921  MISS:      19998
LLC PREFETCH  ACCESS:          0  HIT:          0  MISS:          0
LLC WRITEBACK ACCESS:      79540  HIT:      73666  MISS:       5874
LLC TRANSLATION ACCESS:        797  HIT:        607  MISS:        190
LLC PREFETCH  REQUESTED:          0  ISSUED:          0  USEFUL:          0  USELESS:          0
LLC AVERAGE MISS LATENCY: 295.636 cycles
OPTgen accesses: 44261
OPTgen hits: 39313
OPTgen hit rate: 88.8209



DRAM Statistics
 CHANNEL 0
 RQ ROW_BUFFER_HIT:      23919  ROW_BUFFER_MISS:     476611
 DBUS AVG_CONGESTED_CYCLE:    3.94849
 WQ ROW_BUFFER_HIT:       6307  ROW_BUFFER_MISS:      46579  FULL:          0


CPU 0 Branch Prediction Accuracy: 97.4293% MPKI: 8.26178 Average ROB Occupancy at Mispredict: 57.0539
Branch type MPKI
BRANCH_DIRECT_JUMP: 0.00037
BRANCH_INDIRECT: 0.12485
BRANCH_CONDITIONAL: 8.10493
BRANCH_DIRECT_CALL: 0.00326
BRANCH_INDIRECT_CALL: 0.00558
BRANCH_RETURN: 0.02279

