
*** ChampSim Multicore Out-of-Order Simulator ***

Warmup Instructions: 10000000
Simulation Instructions: 100000000
Number of CPUs: 1
Off-chip DRAM Size: 4 GiB Channels: 1 Width: 64-bit Data Rate: 3200 MT/s

VirtualMemory physical capacity: 8588881920 num_ppages: 2096895
VirtualMemory page size: 4096 log2_page_size: 12

CPU 0 runs /datasets/cs240c-wi22-a00-public/data/Assignment2/bwaves_1609B.trace.xz
CPU 0 Bimodal branch predictor
Basic BTB sets: 1024 ways: 8 indirect buffer size: 4096 RAS size: 64
Initialize Hawkeye state
Heartbeat CPU 0 instructions: 10000000 cycles: 4727853 heartbeat IPC: 2.11512 cumulative IPC: 2.11512 (Simulation time: 0 hr 3 min 27 sec) 

Warmup complete CPU 0 instructions: 10000001 cycles: 4727854 (Simulation time: 0 hr 3 min 27 sec) 

Heartbeat CPU 0 instructions: 20000002 cycles: 38970494 heartbeat IPC: 0.292034 cumulative IPC: 0.292034 (Simulation time: 0 hr 11 min 10 sec) 
Heartbeat CPU 0 instructions: 30000000 cycles: 73172397 heartbeat IPC: 0.292381 cumulative IPC: 0.292207 (Simulation time: 0 hr 18 min 39 sec) 
Heartbeat CPU 0 instructions: 40000002 cycles: 107371910 heartbeat IPC: 0.292402 cumulative IPC: 0.292272 (Simulation time: 0 hr 25 min 59 sec) 
Heartbeat CPU 0 instructions: 50000003 cycles: 141574288 heartbeat IPC: 0.292377 cumulative IPC: 0.292298 (Simulation time: 0 hr 33 min 19 sec) 
Heartbeat CPU 0 instructions: 60000001 cycles: 175803001 heartbeat IPC: 0.292152 cumulative IPC: 0.292269 (Simulation time: 0 hr 40 min 45 sec) 
Heartbeat CPU 0 instructions: 70000000 cycles: 210006466 heartbeat IPC: 0.292368 cumulative IPC: 0.292286 (Simulation time: 0 hr 47 min 21 sec) 
Heartbeat CPU 0 instructions: 80000004 cycles: 244224584 heartbeat IPC: 0.292243 cumulative IPC: 0.29228 (Simulation time: 0 hr 53 min 43 sec) 
Heartbeat CPU 0 instructions: 90000000 cycles: 278460252 heartbeat IPC: 0.292093 cumulative IPC: 0.292256 (Simulation time: 1 hr 0 min 15 sec) 
Heartbeat CPU 0 instructions: 100000000 cycles: 312649770 heartbeat IPC: 0.292487 cumulative IPC: 0.292282 (Simulation time: 1 hr 6 min 23 sec) 
Heartbeat CPU 0 instructions: 110000003 cycles: 346915015 heartbeat IPC: 0.291841 cumulative IPC: 0.292238 (Simulation time: 1 hr 12 min 28 sec) 
Finished CPU 0 instructions: 100000002 cycles: 342187161 cumulative IPC: 0.292238 (Simulation time: 1 hr 12 min 28 sec) 

ChampSim completed all CPUs

Region of Interest Statistics

CPU 0 cumulative IPC: 0.292238 instructions: 100000002 cycles: 342187161
cpu0_DTLB TOTAL     ACCESS:   37920850  HIT:   37839773  MISS:      81077
cpu0_DTLB LOAD      ACCESS:   36199390  HIT:   36119237  MISS:      80153
cpu0_DTLB RFO       ACCESS:    1721460  HIT:    1720536  MISS:        924
cpu0_DTLB PREFETCH  ACCESS:          0  HIT:          0  MISS:          0
cpu0_DTLB WRITEBACK ACCESS:          0  HIT:          0  MISS:          0
cpu0_DTLB TRANSLATION ACCESS:          0  HIT:          0  MISS:          0
cpu0_DTLB PREFETCH  REQUESTED:          0  ISSUED:          0  USEFUL:          0  USELESS:          0
cpu0_DTLB AVERAGE MISS LATENCY: 119.963 cycles
cpu0_ITLB TOTAL     ACCESS:    9626481  HIT:    9626481  MISS:          0
cpu0_ITLB LOAD      ACCESS:    9626481  HIT:    9626481  MISS:          0
cpu0_ITLB RFO       ACCESS:          0  HIT:          0  MISS:          0
cpu0_ITLB PREFETCH  ACCESS:          0  HIT:          0  MISS:          0
cpu0_ITLB WRITEBACK ACCESS:          0  HIT:          0  MISS:          0
cpu0_ITLB TRANSLATION ACCESS:          0  HIT:          0  MISS:          0
cpu0_ITLB PREFETCH  REQUESTED:          0  ISSUED:          0  USEFUL:          0  USELESS:          0
cpu0_ITLB AVERAGE MISS LATENCY: -nan cycles
cpu0_STLB TOTAL     ACCESS:      81077  HIT:      46534  MISS:      34543
cpu0_STLB LOAD      ACCESS:      80153  HIT:      46522  MISS:      33631
cpu0_STLB RFO       ACCESS:        924  HIT:         12  MISS:        912
cpu0_STLB PREFETCH  ACCESS:          0  HIT:          0  MISS:          0
cpu0_STLB WRITEBACK ACCESS:          0  HIT:          0  MISS:          0
cpu0_STLB TRANSLATION ACCESS:          0  HIT:          0  MISS:          0
cpu0_STLB PREFETCH  REQUESTED:          0  ISSUED:          0  USEFUL:          0  USELESS:          0
cpu0_STLB AVERAGE MISS LATENCY: 259.826 cycles
cpu0_L1D TOTAL     ACCESS:   36058937  HIT:   33661393  MISS:    2397544
cpu0_L1D LOAD      ACCESS:   33289481  HIT:   30952813  MISS:    2336668
cpu0_L1D RFO       ACCESS:    2734913  HIT:    2676535  MISS:      58378
cpu0_L1D PREFETCH  ACCESS:          0  HIT:          0  MISS:          0
cpu0_L1D WRITEBACK ACCESS:          0  HIT:          0  MISS:          0
cpu0_L1D TRANSLATION ACCESS:      34543  HIT:      32045  MISS:       2498
cpu0_L1D PREFETCH  REQUESTED:          0  ISSUED:          0  USEFUL:          0  USELESS:          0
cpu0_L1D AVERAGE MISS LATENCY: 1172.65 cycles
cpu0_L2C TOTAL     ACCESS:    2455928  HIT:     179136  MISS:    2276792
cpu0_L2C LOAD      ACCESS:    2336668  HIT:     118268  MISS:    2218400
cpu0_L2C RFO       ACCESS:      58378  HIT:          0  MISS:      58378
cpu0_L2C PREFETCH  ACCESS:          0  HIT:          0  MISS:          0
cpu0_L2C WRITEBACK ACCESS:      58384  HIT:      58384  MISS:          0
cpu0_L2C TRANSLATION ACCESS:       2498  HIT:       2484  MISS:         14
cpu0_L2C PREFETCH  REQUESTED:          0  ISSUED:          0  USEFUL:          0  USELESS:          0
cpu0_L2C AVERAGE MISS LATENCY: 1222.72 cycles
LLC TOTAL     ACCESS:    2335000  HIT:     114982  MISS:    2220018
LLC LOAD      ACCESS:    2218400  HIT:     114469  MISS:    2103931
LLC RFO       ACCESS:      58378  HIT:          0  MISS:      58378
LLC PREFETCH  ACCESS:          0  HIT:          0  MISS:          0
LLC WRITEBACK ACCESS:      58208  HIT:        512  MISS:      57696
LLC TRANSLATION ACCESS:         14  HIT:          1  MISS:         13
LLC PREFETCH  REQUESTED:          0  ISSUED:          0  USEFUL:          0  USELESS:          0
LLC AVERAGE MISS LATENCY: 1232.45 cycles
OPTgen accesses: 39136
OPTgen hits: 2583
OPTgen hit rate: 6.60006



DRAM Statistics
 CHANNEL 0
 RQ ROW_BUFFER_HIT:        206  ROW_BUFFER_MISS:    2162116
 DBUS AVG_CONGESTED_CYCLE:    3.99833
 WQ ROW_BUFFER_HIT:      12418  ROW_BUFFER_MISS:      46362  FULL:          0


CPU 0 Branch Prediction Accuracy: 62.439% MPKI: 11.2378 Average ROB Occupancy at Mispredict: 168.254
Branch type MPKI
BRANCH_DIRECT_JUMP: 0
BRANCH_INDIRECT: 0
BRANCH_CONDITIONAL: 11.2378
BRANCH_DIRECT_CALL: 0
BRANCH_INDIRECT_CALL: 0
BRANCH_RETURN: 0

