
*** ChampSim Multicore Out-of-Order Simulator ***

Warmup Instructions: 10000000
Simulation Instructions: 100000000
Number of CPUs: 1
Off-chip DRAM Size: 4 GiB Channels: 1 Width: 64-bit Data Rate: 3200 MT/s

VirtualMemory physical capacity: 8588881920 num_ppages: 2096895
VirtualMemory page size: 4096 log2_page_size: 12

CPU 0 runs /Users/brandon/Documents/CoursesWi22/CSE240C/Homework2/traces/astar_23B.trace.xz
CPU 0 Bimodal branch predictor
Basic BTB sets: 1024 ways: 8 indirect buffer size: 4096 RAS size: 64
Initialize SRRIP state
Heartbeat CPU 0 instructions: 10000002 cycles: 2670768 heartbeat IPC: 3.74424 cumulative IPC: 3.74424 (Simulation time: 0 hr 0 min 59 sec) 

Warmup complete CPU 0 instructions: 10000002 cycles: 2670768 (Simulation time: 0 hr 0 min 59 sec) 

Heartbeat CPU 0 instructions: 20000003 cycles: 25694906 heartbeat IPC: 0.434327 cumulative IPC: 0.434327 (Simulation time: 0 hr 1 min 40 sec) 
Heartbeat CPU 0 instructions: 30000000 cycles: 50083285 heartbeat IPC: 0.410031 cumulative IPC: 0.421829 (Simulation time: 0 hr 2 min 23 sec) 
Heartbeat CPU 0 instructions: 40000002 cycles: 74621999 heartbeat IPC: 0.407519 cumulative IPC: 0.416949 (Simulation time: 0 hr 3 min 8 sec) 
Heartbeat CPU 0 instructions: 50000002 cycles: 98860258 heartbeat IPC: 0.412571 cumulative IPC: 0.415846 (Simulation time: 0 hr 3 min 55 sec) 
Heartbeat CPU 0 instructions: 60000000 cycles: 123456643 heartbeat IPC: 0.406564 cumulative IPC: 0.413956 (Simulation time: 0 hr 4 min 38 sec) 
Heartbeat CPU 0 instructions: 70000000 cycles: 146545454 heartbeat IPC: 0.43311 cumulative IPC: 0.41703 (Simulation time: 0 hr 5 min 23 sec) 
Heartbeat CPU 0 instructions: 80000000 cycles: 170585901 heartbeat IPC: 0.415966 cumulative IPC: 0.416877 (Simulation time: 0 hr 6 min 8 sec) 
Heartbeat CPU 0 instructions: 90000004 cycles: 194905976 heartbeat IPC: 0.411183 cumulative IPC: 0.416157 (Simulation time: 0 hr 6 min 50 sec) 
Heartbeat CPU 0 instructions: 100000002 cycles: 218306223 heartbeat IPC: 0.427346 cumulative IPC: 0.417371 (Simulation time: 0 hr 7 min 32 sec) 
Heartbeat CPU 0 instructions: 110000003 cycles: 242252454 heartbeat IPC: 0.417602 cumulative IPC: 0.417394 (Simulation time: 0 hr 8 min 14 sec) 
Finished CPU 0 instructions: 100000001 cycles: 239581686 cumulative IPC: 0.417394 (Simulation time: 0 hr 8 min 14 sec) 

ChampSim completed all CPUs

Region of Interest Statistics

CPU 0 cumulative IPC: 0.417394 instructions: 100000001 cycles: 239581686
cpu0_DTLB TOTAL     ACCESS:   24054358  HIT:   21626511  MISS:    2427847
cpu0_DTLB LOAD      ACCESS:   21285658  HIT:   19103762  MISS:    2181896
cpu0_DTLB RFO       ACCESS:    2768700  HIT:    2522749  MISS:     245951
cpu0_DTLB PREFETCH  ACCESS:          0  HIT:          0  MISS:          0
cpu0_DTLB WRITEBACK ACCESS:          0  HIT:          0  MISS:          0
cpu0_DTLB TRANSLATION ACCESS:          0  HIT:          0  MISS:          0
cpu0_DTLB PREFETCH  REQUESTED:          0  ISSUED:          0  USEFUL:          0  USELESS:          0
cpu0_DTLB AVERAGE MISS LATENCY: 10.5705 cycles
cpu0_ITLB TOTAL     ACCESS:   12810458  HIT:   12810448  MISS:         10
cpu0_ITLB LOAD      ACCESS:   12810458  HIT:   12810448  MISS:         10
cpu0_ITLB RFO       ACCESS:          0  HIT:          0  MISS:          0
cpu0_ITLB PREFETCH  ACCESS:          0  HIT:          0  MISS:          0
cpu0_ITLB WRITEBACK ACCESS:          0  HIT:          0  MISS:          0
cpu0_ITLB TRANSLATION ACCESS:          0  HIT:          0  MISS:          0
cpu0_ITLB PREFETCH  REQUESTED:          0  ISSUED:          0  USEFUL:          0  USELESS:          0
cpu0_ITLB AVERAGE MISS LATENCY: 239.6 cycles
cpu0_L1I TOTAL     ACCESS:       4971  HIT:       4870  MISS:        101
cpu0_L1I LOAD      ACCESS:       4971  HIT:       4870  MISS:        101
cpu0_L1I RFO       ACCESS:          0  HIT:          0  MISS:          0
cpu0_L1I PREFETCH  ACCESS:          0  HIT:          0  MISS:          0
cpu0_L1I WRITEBACK ACCESS:          0  HIT:          0  MISS:          0
cpu0_L1I TRANSLATION ACCESS:          0  HIT:          0  MISS:          0
cpu0_L1I PREFETCH  REQUESTED:          0  ISSUED:          0  USEFUL:          0  USELESS:          0
cpu0_L1I AVERAGE MISS LATENCY: 197.941 cycles
cpu0_STLB TOTAL     ACCESS:    2427857  HIT:    2026650  MISS:     401207
cpu0_STLB LOAD      ACCESS:    2181906  HIT:    1847022  MISS:     334884
cpu0_STLB RFO       ACCESS:     245951  HIT:     179628  MISS:      66323
cpu0_STLB PREFETCH  ACCESS:          0  HIT:          0  MISS:          0
cpu0_STLB WRITEBACK ACCESS:          0  HIT:          0  MISS:          0
cpu0_STLB TRANSLATION ACCESS:          0  HIT:          0  MISS:          0
cpu0_STLB PREFETCH  REQUESTED:          0  ISSUED:          0  USEFUL:          0  USELESS:          0
cpu0_STLB AVERAGE MISS LATENCY: 9.44373 cycles
cpu0_L1D TOTAL     ACCESS:   26431088  HIT:   23506593  MISS:    2924495
cpu0_L1D LOAD      ACCESS:   21757353  HIT:   18871926  MISS:    2885427
cpu0_L1D RFO       ACCESS:    4287210  HIT:    4250127  MISS:      37083
cpu0_L1D PREFETCH  ACCESS:          0  HIT:          0  MISS:          0
cpu0_L1D WRITEBACK ACCESS:          0  HIT:          0  MISS:          0
cpu0_L1D TRANSLATION ACCESS:     386525  HIT:     384540  MISS:       1985
cpu0_L1D PREFETCH  REQUESTED:          0  ISSUED:          0  USEFUL:          0  USELESS:          0
cpu0_L1D AVERAGE MISS LATENCY: 33.4599 cycles
cpu0_L2C TOTAL     ACCESS:    3881068  HIT:    2734099  MISS:    1146969
cpu0_L2C LOAD      ACCESS:    2885456  HIT:    1746075  MISS:    1139381
cpu0_L2C RFO       ACCESS:      37083  HIT:      29755  MISS:       7328
cpu0_L2C PREFETCH  ACCESS:          0  HIT:          0  MISS:          0
cpu0_L2C WRITEBACK ACCESS:     956544  HIT:     956467  MISS:         77
cpu0_L2C TRANSLATION ACCESS:       1985  HIT:       1802  MISS:        183
cpu0_L2C PREFETCH  REQUESTED:          0  ISSUED:          0  USEFUL:          0  USELESS:          0
cpu0_L2C AVERAGE MISS LATENCY: 57.2318 cycles
LLC TOTAL     ACCESS:    1560074  HIT:    1285171  MISS:     274903
LLC LOAD      ACCESS:    1139230  HIT:     899693  MISS:     239537
LLC RFO       ACCESS:       7328  HIT:       6998  MISS:        330
LLC PREFETCH  ACCESS:          0  HIT:          0  MISS:          0
LLC WRITEBACK ACCESS:     413333  HIT:     378312  MISS:      35021
LLC TRANSLATION ACCESS:        183  HIT:        168  MISS:         15
LLC PREFETCH  REQUESTED:          0  ISSUED:          0  USEFUL:          0  USELESS:          0
LLC AVERAGE MISS LATENCY: 151.186 cycles
Insertion Distribution: 
	LOAD 83648 0 132755 48908 
	RFO 0 0 384 0 
	PREF 0 0 0 0 
	WRITEBACK 0 0 0 35286 
	 1 0 22 3 
Total Prefetch Downgrades: 0

DRAM Statistics
 CHANNEL 0
 RQ ROW_BUFFER_HIT:        535  ROW_BUFFER_MISS:     239155
 DBUS AVG_CONGESTED_CYCLE:    3.55984
 WQ ROW_BUFFER_HIT:       6610  ROW_BUFFER_MISS:     129785  FULL:          0


CPU 0 Branch Prediction Accuracy: 69.3175% MPKI: 58.5794 Average ROB Occupancy at Mispredict: 5.13554
Branch type MPKI
BRANCH_DIRECT_JUMP: 0.00025
BRANCH_INDIRECT: 0
BRANCH_CONDITIONAL: 58.5789
BRANCH_DIRECT_CALL: 0.00016
BRANCH_INDIRECT_CALL: 0
BRANCH_RETURN: 0.00016

