
*** ChampSim Multicore Out-of-Order Simulator ***

Warmup Instructions: 10000000
Simulation Instructions: 100000000
Number of CPUs: 1
Off-chip DRAM Size: 4 GiB Channels: 1 Width: 64-bit Data Rate: 3200 MT/s

VirtualMemory physical capacity: 8588881920 num_ppages: 2096895
VirtualMemory page size: 4096 log2_page_size: 12

CPU 0 runs /Users/brandon/Documents/CoursesWi22/CSE240C/Homework2/traces/bzip2_281B.trace.xz
CPU 0 Bimodal branch predictor
Basic BTB sets: 1024 ways: 8 indirect buffer size: 4096 RAS size: 64
Initialize SRRIP state
Heartbeat CPU 0 instructions: 10000004 cycles: 3227453 heartbeat IPC: 3.09842 cumulative IPC: 3.09842 (Simulation time: 0 hr 1 min 7 sec) 

Warmup complete CPU 0 instructions: 10000004 cycles: 3227453 (Simulation time: 0 hr 1 min 7 sec) 

Heartbeat CPU 0 instructions: 20000000 cycles: 13808185 heartbeat IPC: 0.945114 cumulative IPC: 0.945114 (Simulation time: 0 hr 2 min 17 sec) 
Heartbeat CPU 0 instructions: 30000001 cycles: 25619292 heartbeat IPC: 0.846661 cumulative IPC: 0.893182 (Simulation time: 0 hr 4 min 20 sec) 
Heartbeat CPU 0 instructions: 40000002 cycles: 30186165 heartbeat IPC: 2.18968 cumulative IPC: 1.11281 (Simulation time: 0 hr 5 min 16 sec) 
Heartbeat CPU 0 instructions: 50000003 cycles: 35111153 heartbeat IPC: 2.03046 cumulative IPC: 1.25456 (Simulation time: 0 hr 6 min 8 sec) 
Heartbeat CPU 0 instructions: 60000000 cycles: 40210987 heartbeat IPC: 1.96085 cumulative IPC: 1.35195 (Simulation time: 0 hr 7 min 7 sec) 
Heartbeat CPU 0 instructions: 70000004 cycles: 47737237 heartbeat IPC: 1.32868 cumulative IPC: 1.34802 (Simulation time: 0 hr 8 min 43 sec) 
Heartbeat CPU 0 instructions: 80000003 cycles: 55358375 heartbeat IPC: 1.31214 cumulative IPC: 1.34277 (Simulation time: 0 hr 10 min 1 sec) 
Heartbeat CPU 0 instructions: 90000003 cycles: 61732273 heartbeat IPC: 1.5689 cumulative IPC: 1.36741 (Simulation time: 0 hr 10 min 47 sec) 
Heartbeat CPU 0 instructions: 100000001 cycles: 68378766 heartbeat IPC: 1.50455 cumulative IPC: 1.3814 (Simulation time: 0 hr 11 min 39 sec) 
Heartbeat CPU 0 instructions: 110000000 cycles: 75156274 heartbeat IPC: 1.47547 cumulative IPC: 1.39026 (Simulation time: 0 hr 12 min 28 sec) 
Finished CPU 0 instructions: 100000000 cycles: 71928823 cumulative IPC: 1.39026 (Simulation time: 0 hr 12 min 28 sec) 

ChampSim completed all CPUs

Region of Interest Statistics

CPU 0 cumulative IPC: 1.39026 instructions: 100000000 cycles: 71928823
cpu0_DTLB TOTAL     ACCESS:   19658536  HIT:   18899871  MISS:     758665
cpu0_DTLB LOAD      ACCESS:   13797386  HIT:   13151641  MISS:     645745
cpu0_DTLB RFO       ACCESS:    5861150  HIT:    5748230  MISS:     112920
cpu0_DTLB PREFETCH  ACCESS:          0  HIT:          0  MISS:          0
cpu0_DTLB WRITEBACK ACCESS:          0  HIT:          0  MISS:          0
cpu0_DTLB TRANSLATION ACCESS:          0  HIT:          0  MISS:          0
cpu0_DTLB PREFETCH  REQUESTED:          0  ISSUED:          0  USEFUL:          0  USELESS:          0
cpu0_DTLB AVERAGE MISS LATENCY: 9.33091 cycles
cpu0_ITLB TOTAL     ACCESS:    6412060  HIT:    6412046  MISS:         14
cpu0_ITLB LOAD      ACCESS:    6412060  HIT:    6412046  MISS:         14
cpu0_ITLB RFO       ACCESS:          0  HIT:          0  MISS:          0
cpu0_ITLB PREFETCH  ACCESS:          0  HIT:          0  MISS:          0
cpu0_ITLB WRITEBACK ACCESS:          0  HIT:          0  MISS:          0
cpu0_ITLB TRANSLATION ACCESS:          0  HIT:          0  MISS:          0
cpu0_ITLB PREFETCH  REQUESTED:          0  ISSUED:          0  USEFUL:          0  USELESS:          0
cpu0_ITLB AVERAGE MISS LATENCY: 220.929 cycles
cpu0_L1I TOTAL     ACCESS:    2685561  HIT:    2685207  MISS:        354
cpu0_L1I LOAD      ACCESS:    2685561  HIT:    2685207  MISS:        354
cpu0_L1I RFO       ACCESS:          0  HIT:          0  MISS:          0
cpu0_L1I PREFETCH  ACCESS:          0  HIT:          0  MISS:          0
cpu0_L1I WRITEBACK ACCESS:          0  HIT:          0  MISS:          0
cpu0_L1I TRANSLATION ACCESS:          0  HIT:          0  MISS:          0
cpu0_L1I PREFETCH  REQUESTED:          0  ISSUED:          0  USEFUL:          0  USELESS:          0
cpu0_L1I AVERAGE MISS LATENCY: 177.008 cycles
cpu0_STLB TOTAL     ACCESS:     758679  HIT:     757597  MISS:       1082
cpu0_STLB LOAD      ACCESS:     645759  HIT:     644852  MISS:        907
cpu0_STLB RFO       ACCESS:     112920  HIT:     112745  MISS:        175
cpu0_STLB PREFETCH  ACCESS:          0  HIT:          0  MISS:          0
cpu0_STLB WRITEBACK ACCESS:          0  HIT:          0  MISS:          0
cpu0_STLB TRANSLATION ACCESS:          0  HIT:          0  MISS:          0
cpu0_STLB PREFETCH  REQUESTED:          0  ISSUED:          0  USEFUL:          0  USELESS:          0
cpu0_STLB AVERAGE MISS LATENCY: 203.171 cycles
cpu0_L1D TOTAL     ACCESS:   23592815  HIT:   21993664  MISS:    1599151
cpu0_L1D LOAD      ACCESS:   13827046  HIT:   12434052  MISS:    1392994
cpu0_L1D RFO       ACCESS:    9764700  HIT:    9559047  MISS:     205653
cpu0_L1D PREFETCH  ACCESS:          0  HIT:          0  MISS:          0
cpu0_L1D WRITEBACK ACCESS:          0  HIT:          0  MISS:          0
cpu0_L1D TRANSLATION ACCESS:       1069  HIT:        565  MISS:        504
cpu0_L1D PREFETCH  REQUESTED:          0  ISSUED:          0  USEFUL:          0  USELESS:          0
cpu0_L1D AVERAGE MISS LATENCY: 86.1254 cycles
cpu0_L2C TOTAL     ACCESS:    1813809  HIT:     913883  MISS:     899926
cpu0_L2C LOAD      ACCESS:    1393344  HIT:     651655  MISS:     741689
cpu0_L2C RFO       ACCESS:     205643  HIT:      47666  MISS:     157977
cpu0_L2C PREFETCH  ACCESS:          0  HIT:          0  MISS:          0
cpu0_L2C WRITEBACK ACCESS:     214318  HIT:     214079  MISS:        239
cpu0_L2C TRANSLATION ACCESS:        504  HIT:        483  MISS:         21
cpu0_L2C PREFETCH  REQUESTED:          0  ISSUED:          0  USEFUL:          0  USELESS:          0
cpu0_L2C AVERAGE MISS LATENCY: 133.427 cycles
LLC TOTAL     ACCESS:    1058792  HIT:     837374  MISS:     221418
LLC LOAD      ACCESS:     741689  HIT:     616372  MISS:     125317
LLC RFO       ACCESS:     157965  HIT:      84815  MISS:      73150
LLC PREFETCH  ACCESS:          0  HIT:          0  MISS:          0
LLC WRITEBACK ACCESS:     159117  HIT:     136170  MISS:      22947
LLC TRANSLATION ACCESS:         21  HIT:         17  MISS:          4
LLC PREFETCH  REQUESTED:          0  ISSUED:          0  USEFUL:          0  USELESS:          0
LLC AVERAGE MISS LATENCY: 456.954 cycles
Insertion Distribution: 
	LOAD 36380 0 36239 74325 
	RFO 21206 0 48010 21605 
	PREF 0 0 0 0 
	WRITEBACK 0 0 0 23495 
	 0 0 15 0 
Total Prefetch Downgrades: 0

DRAM Statistics
 CHANNEL 0
 RQ ROW_BUFFER_HIT:      60343  ROW_BUFFER_MISS:     137765
 DBUS AVG_CONGESTED_CYCLE:    3.98787
 WQ ROW_BUFFER_HIT:       4677  ROW_BUFFER_MISS:      81593  FULL:       1160


CPU 0 Branch Prediction Accuracy: 91.2056% MPKI: 12.1715 Average ROB Occupancy at Mispredict: 68.0862
Branch type MPKI
BRANCH_DIRECT_JUMP: 0.00059
BRANCH_INDIRECT: 0
BRANCH_CONDITIONAL: 12.1706
BRANCH_DIRECT_CALL: 0.00014
BRANCH_INDIRECT_CALL: 0
BRANCH_RETURN: 0.00019

