
*** ChampSim Multicore Out-of-Order Simulator ***

Warmup Instructions: 10000000
Simulation Instructions: 100000000
Number of CPUs: 1
Off-chip DRAM Size: 4 GiB Channels: 1 Width: 64-bit Data Rate: 3200 MT/s

VirtualMemory physical capacity: 8588881920 num_ppages: 2096895
VirtualMemory page size: 4096 log2_page_size: 12

CPU 0 runs /Users/brandon/Documents/CoursesWi22/CSE240C/Homework2/traces/leslie3d_1186B.trace.xz
CPU 0 Bimodal branch predictor
Basic BTB sets: 1024 ways: 8 indirect buffer size: 4096 RAS size: 64
Initialize SRRIP state
Heartbeat CPU 0 instructions: 10000000 cycles: 4308816 heartbeat IPC: 2.32082 cumulative IPC: 2.32082 (Simulation time: 0 hr 1 min 52 sec) 

Warmup complete CPU 0 instructions: 10000005 cycles: 4308817 (Simulation time: 0 hr 1 min 52 sec) 

Heartbeat CPU 0 instructions: 20000000 cycles: 17663472 heartbeat IPC: 0.748803 cumulative IPC: 0.748802 (Simulation time: 0 hr 4 min 55 sec) 
Heartbeat CPU 0 instructions: 30000000 cycles: 31608768 heartbeat IPC: 0.717088 cumulative IPC: 0.732602 (Simulation time: 0 hr 8 min 3 sec) 
Heartbeat CPU 0 instructions: 40000004 cycles: 45288772 heartbeat IPC: 0.730994 cumulative IPC: 0.732065 (Simulation time: 0 hr 11 min 10 sec) 
Heartbeat CPU 0 instructions: 50000001 cycles: 61763557 heartbeat IPC: 0.606988 cumulative IPC: 0.6962 (Simulation time: 0 hr 14 min 40 sec) 
Heartbeat CPU 0 instructions: 60000000 cycles: 97105986 heartbeat IPC: 0.282946 cumulative IPC: 0.538809 (Simulation time: 0 hr 20 min 51 sec) 
Heartbeat CPU 0 instructions: 70000004 cycles: 125566869 heartbeat IPC: 0.35136 cumulative IPC: 0.494812 (Simulation time: 0 hr 26 min 11 sec) 
Heartbeat CPU 0 instructions: 80000002 cycles: 135785767 heartbeat IPC: 0.978579 cumulative IPC: 0.532413 (Simulation time: 0 hr 28 min 54 sec) 
Heartbeat CPU 0 instructions: 90000002 cycles: 145935605 heartbeat IPC: 0.985237 cumulative IPC: 0.564865 (Simulation time: 0 hr 31 min 35 sec) 
Heartbeat CPU 0 instructions: 100000000 cycles: 156089943 heartbeat IPC: 0.984801 cumulative IPC: 0.592959 (Simulation time: 0 hr 34 min 12 sec) 
Heartbeat CPU 0 instructions: 110000000 cycles: 166259668 heartbeat IPC: 0.983311 cumulative IPC: 0.617471 (Simulation time: 0 hr 37 min 0 sec) 
Finished CPU 0 instructions: 100000000 cycles: 161950852 cumulative IPC: 0.617471 (Simulation time: 0 hr 37 min 0 sec) 

ChampSim completed all CPUs

Region of Interest Statistics

CPU 0 cumulative IPC: 0.617471 instructions: 100000000 cycles: 161950852
cpu0_DTLB TOTAL     ACCESS:   27963823  HIT:   27866304  MISS:      97519
cpu0_DTLB LOAD      ACCESS:   23296056  HIT:   23210287  MISS:      85769
cpu0_DTLB RFO       ACCESS:    4667767  HIT:    4656017  MISS:      11750
cpu0_DTLB PREFETCH  ACCESS:          0  HIT:          0  MISS:          0
cpu0_DTLB WRITEBACK ACCESS:          0  HIT:          0  MISS:          0
cpu0_DTLB TRANSLATION ACCESS:          0  HIT:          0  MISS:          0
cpu0_DTLB PREFETCH  REQUESTED:          0  ISSUED:          0  USEFUL:          0  USELESS:          0
cpu0_DTLB AVERAGE MISS LATENCY: 52.6223 cycles
cpu0_ITLB TOTAL     ACCESS:    2915746  HIT:    2915733  MISS:         13
cpu0_ITLB LOAD      ACCESS:    2915746  HIT:    2915733  MISS:         13
cpu0_ITLB RFO       ACCESS:          0  HIT:          0  MISS:          0
cpu0_ITLB PREFETCH  ACCESS:          0  HIT:          0  MISS:          0
cpu0_ITLB WRITEBACK ACCESS:          0  HIT:          0  MISS:          0
cpu0_ITLB TRANSLATION ACCESS:          0  HIT:          0  MISS:          0
cpu0_ITLB PREFETCH  REQUESTED:          0  ISSUED:          0  USEFUL:          0  USELESS:          0
cpu0_ITLB AVERAGE MISS LATENCY: 304 cycles
cpu0_L1I TOTAL     ACCESS:    1737329  HIT:    1736949  MISS:        380
cpu0_L1I LOAD      ACCESS:    1737329  HIT:    1736949  MISS:        380
cpu0_L1I RFO       ACCESS:          0  HIT:          0  MISS:          0
cpu0_L1I PREFETCH  ACCESS:          0  HIT:          0  MISS:          0
cpu0_L1I WRITEBACK ACCESS:          0  HIT:          0  MISS:          0
cpu0_L1I TRANSLATION ACCESS:          0  HIT:          0  MISS:          0
cpu0_L1I PREFETCH  REQUESTED:          0  ISSUED:          0  USEFUL:          0  USELESS:          0
cpu0_L1I AVERAGE MISS LATENCY: 324.016 cycles
cpu0_STLB TOTAL     ACCESS:      97532  HIT:      70130  MISS:      27402
cpu0_STLB LOAD      ACCESS:      85782  HIT:      63055  MISS:      22727
cpu0_STLB RFO       ACCESS:      11750  HIT:       7075  MISS:       4675
cpu0_STLB PREFETCH  ACCESS:          0  HIT:          0  MISS:          0
cpu0_STLB WRITEBACK ACCESS:          0  HIT:          0  MISS:          0
cpu0_STLB TRANSLATION ACCESS:          0  HIT:          0  MISS:          0
cpu0_STLB PREFETCH  REQUESTED:          0  ISSUED:          0  USEFUL:          0  USELESS:          0
cpu0_STLB AVERAGE MISS LATENCY: 155.329 cycles
cpu0_L1D TOTAL     ACCESS:   27057383  HIT:   23154429  MISS:    3902954
cpu0_L1D LOAD      ACCESS:   17828180  HIT:   14644200  MISS:    3183980
cpu0_L1D RFO       ACCESS:    9204661  HIT:    8489129  MISS:     715532
cpu0_L1D PREFETCH  ACCESS:          0  HIT:          0  MISS:          0
cpu0_L1D WRITEBACK ACCESS:          0  HIT:          0  MISS:          0
cpu0_L1D TRANSLATION ACCESS:      24542  HIT:      21100  MISS:       3442
cpu0_L1D PREFETCH  REQUESTED:          0  ISSUED:          0  USEFUL:          0  USELESS:          0
cpu0_L1D AVERAGE MISS LATENCY: 350.081 cycles
cpu0_L2C TOTAL     ACCESS:    4956463  HIT:    2406472  MISS:    2549991
cpu0_L2C LOAD      ACCESS:    3184306  HIT:    1043135  MISS:    2141171
cpu0_L2C RFO       ACCESS:     715212  HIT:     309209  MISS:     406003
cpu0_L2C PREFETCH  ACCESS:          0  HIT:          0  MISS:          0
cpu0_L2C WRITEBACK ACCESS:    1053503  HIT:    1050936  MISS:       2567
cpu0_L2C TRANSLATION ACCESS:       3442  HIT:       3192  MISS:        250
cpu0_L2C PREFETCH  REQUESTED:          0  ISSUED:          0  USEFUL:          0  USELESS:          0
cpu0_L2C AVERAGE MISS LATENCY: 518.98 cycles
LLC TOTAL     ACCESS:    3210136  HIT:     837452  MISS:    2372684
LLC LOAD      ACCESS:    2141169  HIT:     542731  MISS:    1598438
LLC RFO       ACCESS:     405994  HIT:     114682  MISS:     291312
LLC PREFETCH  ACCESS:          0  HIT:          0  MISS:          0
LLC WRITEBACK ACCESS:     662723  HIT:     179836  MISS:     482887
LLC TRANSLATION ACCESS:        250  HIT:        203  MISS:         47
LLC PREFETCH  REQUESTED:          0  ISSUED:          0  USEFUL:          0  USELESS:          0
LLC AVERAGE MISS LATENCY: 535.209 cycles
Insertion Distribution: 
	LOAD 204705 0 233310 1327037 
	RFO 1661 0 23044 268713 
	PREF 0 0 0 0 
	WRITEBACK 0 0 0 501385 
	 0 0 42 29 
Total Prefetch Downgrades: 0

DRAM Statistics
 CHANNEL 0
 RQ ROW_BUFFER_HIT:     216933  ROW_BUFFER_MISS:    1672821
 DBUS AVG_CONGESTED_CYCLE:    3.94717
 WQ ROW_BUFFER_HIT:      42163  ROW_BUFFER_MISS:     487235  FULL:      15249


CPU 0 Branch Prediction Accuracy: 96.8384% MPKI: 1.47634 Average ROB Occupancy at Mispredict: 311.339
Branch type MPKI
BRANCH_DIRECT_JUMP: 0.00016
BRANCH_INDIRECT: 0
BRANCH_CONDITIONAL: 1.47504
BRANCH_DIRECT_CALL: 0.00057
BRANCH_INDIRECT_CALL: 0
BRANCH_RETURN: 0.00057

