
*** ChampSim Multicore Out-of-Order Simulator ***

Warmup Instructions: 10000000
Simulation Instructions: 100000000
Number of CPUs: 1
Off-chip DRAM Size: 4 GiB Channels: 1 Width: 64-bit Data Rate: 3200 MT/s

VirtualMemory physical capacity: 8588881920 num_ppages: 2096895
VirtualMemory page size: 4096 log2_page_size: 12

CPU 0 runs /Users/brandon/Documents/CoursesWi22/CSE240C/Homework2/traces/mcf_46B.trace.xz
CPU 0 Bimodal branch predictor
Basic BTB sets: 1024 ways: 8 indirect buffer size: 4096 RAS size: 64
Initialize SRRIP state
Heartbeat CPU 0 instructions: 10000002 cycles: 3434374 heartbeat IPC: 2.91174 cumulative IPC: 2.91174 (Simulation time: 0 hr 1 min 22 sec) 

Warmup complete CPU 0 instructions: 10000002 cycles: 3434374 (Simulation time: 0 hr 1 min 22 sec) 

Heartbeat CPU 0 instructions: 20000001 cycles: 110240548 heartbeat IPC: 0.0936275 cumulative IPC: 0.0936275 (Simulation time: 0 hr 5 min 24 sec) 
Heartbeat CPU 0 instructions: 30000004 cycles: 213365931 heartbeat IPC: 0.0969694 cumulative IPC: 0.0952692 (Simulation time: 0 hr 9 min 13 sec) 
Heartbeat CPU 0 instructions: 40000004 cycles: 317611091 heartbeat IPC: 0.0959277 cumulative IPC: 0.0954877 (Simulation time: 0 hr 12 min 37 sec) 
Heartbeat CPU 0 instructions: 50000003 cycles: 418971556 heartbeat IPC: 0.0986578 cumulative IPC: 0.0962609 (Simulation time: 0 hr 15 min 58 sec) 
Heartbeat CPU 0 instructions: 60000000 cycles: 525794810 heartbeat IPC: 0.0936126 cumulative IPC: 0.0957193 (Simulation time: 0 hr 19 min 32 sec) 
Heartbeat CPU 0 instructions: 70000004 cycles: 634799956 heartbeat IPC: 0.0917388 cumulative IPC: 0.0950321 (Simulation time: 0 hr 23 min 10 sec) 
Heartbeat CPU 0 instructions: 80000003 cycles: 741629287 heartbeat IPC: 0.0936072 cumulative IPC: 0.0948259 (Simulation time: 0 hr 26 min 45 sec) 
Heartbeat CPU 0 instructions: 90000001 cycles: 848915127 heartbeat IPC: 0.0932089 cumulative IPC: 0.0946207 (Simulation time: 0 hr 30 min 39 sec) 
Heartbeat CPU 0 instructions: 100000001 cycles: 956309800 heartbeat IPC: 0.0931145 cumulative IPC: 0.094451 (Simulation time: 0 hr 34 min 30 sec) 
Heartbeat CPU 0 instructions: 110000002 cycles: 1056213447 heartbeat IPC: 0.100096 cumulative IPC: 0.0949867 (Simulation time: 0 hr 38 min 0 sec) 
Finished CPU 0 instructions: 100000000 cycles: 1052779073 cumulative IPC: 0.0949867 (Simulation time: 0 hr 38 min 0 sec) 

ChampSim completed all CPUs

Region of Interest Statistics

CPU 0 cumulative IPC: 0.0949867 instructions: 100000000 cycles: 1052779073
cpu0_DTLB TOTAL     ACCESS:   23836692  HIT:   14568321  MISS:    9268371
cpu0_DTLB LOAD      ACCESS:   20105909  HIT:   11365311  MISS:    8740598
cpu0_DTLB RFO       ACCESS:    3730783  HIT:    3203010  MISS:     527773
cpu0_DTLB PREFETCH  ACCESS:          0  HIT:          0  MISS:          0
cpu0_DTLB WRITEBACK ACCESS:          0  HIT:          0  MISS:          0
cpu0_DTLB TRANSLATION ACCESS:          0  HIT:          0  MISS:          0
cpu0_DTLB PREFETCH  REQUESTED:          0  ISSUED:          0  USEFUL:          0  USELESS:          0
cpu0_DTLB AVERAGE MISS LATENCY: 11.6425 cycles
cpu0_ITLB TOTAL     ACCESS:   12719050  HIT:   12719050  MISS:          0
cpu0_ITLB LOAD      ACCESS:   12719050  HIT:   12719050  MISS:          0
cpu0_ITLB RFO       ACCESS:          0  HIT:          0  MISS:          0
cpu0_ITLB PREFETCH  ACCESS:          0  HIT:          0  MISS:          0
cpu0_ITLB WRITEBACK ACCESS:          0  HIT:          0  MISS:          0
cpu0_ITLB TRANSLATION ACCESS:          0  HIT:          0  MISS:          0
cpu0_ITLB PREFETCH  REQUESTED:          0  ISSUED:          0  USEFUL:          0  USELESS:          0
cpu0_ITLB AVERAGE MISS LATENCY: nan cycles
cpu0_L1I TOTAL     ACCESS:         52  HIT:         52  MISS:          0
cpu0_L1I LOAD      ACCESS:         52  HIT:         52  MISS:          0
cpu0_L1I RFO       ACCESS:          0  HIT:          0  MISS:          0
cpu0_L1I PREFETCH  ACCESS:          0  HIT:          0  MISS:          0
cpu0_L1I WRITEBACK ACCESS:          0  HIT:          0  MISS:          0
cpu0_L1I TRANSLATION ACCESS:          0  HIT:          0  MISS:          0
cpu0_L1I PREFETCH  REQUESTED:          0  ISSUED:          0  USEFUL:          0  USELESS:          0
cpu0_L1I AVERAGE MISS LATENCY: nan cycles
cpu0_STLB TOTAL     ACCESS:    9268371  HIT:    7944808  MISS:    1323563
cpu0_STLB LOAD      ACCESS:    8740598  HIT:    7428141  MISS:    1312457
cpu0_STLB RFO       ACCESS:     527773  HIT:     516667  MISS:      11106
cpu0_STLB PREFETCH  ACCESS:          0  HIT:          0  MISS:          0
cpu0_STLB WRITEBACK ACCESS:          0  HIT:          0  MISS:          0
cpu0_STLB TRANSLATION ACCESS:          0  HIT:          0  MISS:          0
cpu0_STLB PREFETCH  REQUESTED:          0  ISSUED:          0  USEFUL:          0  USELESS:          0
cpu0_STLB AVERAGE MISS LATENCY: 18.4308 cycles
cpu0_L1D TOTAL     ACCESS:   28041915  HIT:   16265265  MISS:   11776650
cpu0_L1D LOAD      ACCESS:   21743371  HIT:   10440573  MISS:   11302798
cpu0_L1D RFO       ACCESS:    4979292  HIT:    4680525  MISS:     298767
cpu0_L1D PREFETCH  ACCESS:          0  HIT:          0  MISS:          0
cpu0_L1D WRITEBACK ACCESS:          0  HIT:          0  MISS:          0
cpu0_L1D TRANSLATION ACCESS:    1319252  HIT:    1144167  MISS:     175085
cpu0_L1D PREFETCH  REQUESTED:          0  ISSUED:          0  USEFUL:          0  USELESS:          0
cpu0_L1D AVERAGE MISS LATENCY: 245.191 cycles
cpu0_L2C TOTAL     ACCESS:   14260430  HIT:    5805629  MISS:    8454801
cpu0_L2C LOAD      ACCESS:   11302358  HIT:    3064775  MISS:    8237583
cpu0_L2C RFO       ACCESS:     298756  HIT:     121214  MISS:     177542
cpu0_L2C PREFETCH  ACCESS:          0  HIT:          0  MISS:          0
cpu0_L2C WRITEBACK ACCESS:    2484231  HIT:    2483689  MISS:        542
cpu0_L2C TRANSLATION ACCESS:     175085  HIT:     135951  MISS:      39134
cpu0_L2C PREFETCH  REQUESTED:          0  ISSUED:          0  USEFUL:          0  USELESS:          0
cpu0_L2C AVERAGE MISS LATENCY: 326.097 cycles
LLC TOTAL     ACCESS:   10362234  HIT:    4092214  MISS:    6270020
LLC LOAD      ACCESS:    8237573  HIT:    2881077  MISS:    5356496
LLC RFO       ACCESS:     177542  HIT:     100235  MISS:      77307
LLC PREFETCH  ACCESS:          0  HIT:          0  MISS:          0
LLC WRITEBACK ACCESS:    1907985  HIT:    1082741  MISS:     825244
LLC TRANSLATION ACCESS:      39134  HIT:      28161  MISS:      10973
LLC PREFETCH  REQUESTED:          0  ISSUED:          0  USEFUL:          0  USELESS:          0
LLC AVERAGE MISS LATENCY: 411.409 cycles
Insertion Distribution: 
	LOAD 363803 0 169275 5343231 
	RFO 21220 0 9090 55253 
	PREF 0 0 0 0 
	WRITEBACK 0 0 0 894910 
	 2 0 324 11203 
Total Prefetch Downgrades: 0

DRAM Statistics
 CHANNEL 0
 RQ ROW_BUFFER_HIT:       9920  ROW_BUFFER_MISS:    5433807
 DBUS AVG_CONGESTED_CYCLE:    3.94481
 WQ ROW_BUFFER_HIT:      30059  ROW_BUFFER_MISS:    1088388  FULL:          0


CPU 0 Branch Prediction Accuracy: 85.442% MPKI: 39.3219 Average ROB Occupancy at Mispredict: 18.9961
Branch type MPKI
BRANCH_DIRECT_JUMP: 0
BRANCH_INDIRECT: 0
BRANCH_CONDITIONAL: 39.3219
BRANCH_DIRECT_CALL: 0
BRANCH_INDIRECT_CALL: 0
BRANCH_RETURN: 0

