
*** ChampSim Multicore Out-of-Order Simulator ***

Warmup Instructions: 10000000
Simulation Instructions: 100000000
Number of CPUs: 1
Off-chip DRAM Size: 4 GiB Channels: 1 Width: 64-bit Data Rate: 3200 MT/s

VirtualMemory physical capacity: 8588881920 num_ppages: 2096895
VirtualMemory page size: 4096 log2_page_size: 12

CPU 0 runs /Users/brandon/Documents/CoursesWi22/CSE240C/Homework2/traces/xalancbmk_99B.trace.xz
CPU 0 Bimodal branch predictor
Basic BTB sets: 1024 ways: 8 indirect buffer size: 4096 RAS size: 64
Initialize SRRIP state
Heartbeat CPU 0 instructions: 10000001 cycles: 3058747 heartbeat IPC: 3.26931 cumulative IPC: 3.26931 (Simulation time: 0 hr 0 min 52 sec) 

Warmup complete CPU 0 instructions: 10000001 cycles: 3058747 (Simulation time: 0 hr 0 min 52 sec) 

Heartbeat CPU 0 instructions: 20000003 cycles: 36428855 heartbeat IPC: 0.299669 cumulative IPC: 0.299669 (Simulation time: 0 hr 1 min 49 sec) 
Heartbeat CPU 0 instructions: 30000000 cycles: 73251854 heartbeat IPC: 0.271569 cumulative IPC: 0.284928 (Simulation time: 0 hr 2 min 50 sec) 
Heartbeat CPU 0 instructions: 40000000 cycles: 107675972 heartbeat IPC: 0.290494 cumulative IPC: 0.28676 (Simulation time: 0 hr 3 min 48 sec) 
Heartbeat CPU 0 instructions: 50000002 cycles: 141862071 heartbeat IPC: 0.292517 cumulative IPC: 0.288178 (Simulation time: 0 hr 4 min 45 sec) 
Heartbeat CPU 0 instructions: 60000002 cycles: 176768480 heartbeat IPC: 0.28648 cumulative IPC: 0.287836 (Simulation time: 0 hr 5 min 42 sec) 
Heartbeat CPU 0 instructions: 70000002 cycles: 209984103 heartbeat IPC: 0.301063 cumulative IPC: 0.28996 (Simulation time: 0 hr 6 min 40 sec) 
Heartbeat CPU 0 instructions: 80000001 cycles: 244355982 heartbeat IPC: 0.290935 cumulative IPC: 0.290099 (Simulation time: 0 hr 7 min 36 sec) 
Heartbeat CPU 0 instructions: 90000000 cycles: 280435180 heartbeat IPC: 0.277168 cumulative IPC: 0.288417 (Simulation time: 0 hr 8 min 36 sec) 
Heartbeat CPU 0 instructions: 100000000 cycles: 312323830 heartbeat IPC: 0.313591 cumulative IPC: 0.291012 (Simulation time: 0 hr 9 min 27 sec) 
Heartbeat CPU 0 instructions: 110000001 cycles: 344643966 heartbeat IPC: 0.309405 cumulative IPC: 0.292753 (Simulation time: 0 hr 10 min 19 sec) 
Finished CPU 0 instructions: 100000000 cycles: 341585219 cumulative IPC: 0.292753 (Simulation time: 0 hr 10 min 19 sec) 

ChampSim completed all CPUs

Region of Interest Statistics

CPU 0 cumulative IPC: 0.292753 instructions: 100000000 cycles: 341585219
cpu0_DTLB TOTAL     ACCESS:   22793006  HIT:   22232328  MISS:     560678
cpu0_DTLB LOAD      ACCESS:   21414027  HIT:   20862975  MISS:     551052
cpu0_DTLB RFO       ACCESS:    1378979  HIT:    1369353  MISS:       9626
cpu0_DTLB PREFETCH  ACCESS:          0  HIT:          0  MISS:          0
cpu0_DTLB WRITEBACK ACCESS:          0  HIT:          0  MISS:          0
cpu0_DTLB TRANSLATION ACCESS:          0  HIT:          0  MISS:          0
cpu0_DTLB PREFETCH  REQUESTED:          0  ISSUED:          0  USEFUL:          0  USELESS:          0
cpu0_DTLB AVERAGE MISS LATENCY: 37.4102 cycles
cpu0_ITLB TOTAL     ACCESS:   13331784  HIT:   13304426  MISS:      27358
cpu0_ITLB LOAD      ACCESS:   13331784  HIT:   13304426  MISS:      27358
cpu0_ITLB RFO       ACCESS:          0  HIT:          0  MISS:          0
cpu0_ITLB PREFETCH  ACCESS:          0  HIT:          0  MISS:          0
cpu0_ITLB WRITEBACK ACCESS:          0  HIT:          0  MISS:          0
cpu0_ITLB TRANSLATION ACCESS:          0  HIT:          0  MISS:          0
cpu0_ITLB PREFETCH  REQUESTED:          0  ISSUED:          0  USEFUL:          0  USELESS:          0
cpu0_ITLB AVERAGE MISS LATENCY: 10.914 cycles
cpu0_L1I TOTAL     ACCESS:     671028  HIT:     563966  MISS:     107062
cpu0_L1I LOAD      ACCESS:     671028  HIT:     563966  MISS:     107062
cpu0_L1I RFO       ACCESS:          0  HIT:          0  MISS:          0
cpu0_L1I PREFETCH  ACCESS:          0  HIT:          0  MISS:          0
cpu0_L1I WRITEBACK ACCESS:          0  HIT:          0  MISS:          0
cpu0_L1I TRANSLATION ACCESS:          0  HIT:          0  MISS:          0
cpu0_L1I PREFETCH  REQUESTED:          0  ISSUED:          0  USEFUL:          0  USELESS:          0
cpu0_L1I AVERAGE MISS LATENCY: 25.732 cycles
cpu0_STLB TOTAL     ACCESS:     588036  HIT:     173023  MISS:     415013
cpu0_STLB LOAD      ACCESS:     578410  HIT:     164984  MISS:     413426
cpu0_STLB RFO       ACCESS:       9626  HIT:       8039  MISS:       1587
cpu0_STLB PREFETCH  ACCESS:          0  HIT:          0  MISS:          0
cpu0_STLB WRITEBACK ACCESS:          0  HIT:          0  MISS:          0
cpu0_STLB TRANSLATION ACCESS:          0  HIT:          0  MISS:          0
cpu0_STLB PREFETCH  REQUESTED:          0  ISSUED:          0  USEFUL:          0  USELESS:          0
cpu0_STLB AVERAGE MISS LATENCY: 38.4322 cycles
cpu0_L1D TOTAL     ACCESS:   17702951  HIT:   14557846  MISS:    3145105
cpu0_L1D LOAD      ACCESS:   15462877  HIT:   12335671  MISS:    3127206
cpu0_L1D RFO       ACCESS:    1870272  HIT:    1858322  MISS:      11950
cpu0_L1D PREFETCH  ACCESS:          0  HIT:          0  MISS:          0
cpu0_L1D WRITEBACK ACCESS:          0  HIT:          0  MISS:          0
cpu0_L1D TRANSLATION ACCESS:     369802  HIT:     363853  MISS:       5949
cpu0_L1D PREFETCH  REQUESTED:          0  ISSUED:          0  USEFUL:          0  USELESS:          0
cpu0_L1D AVERAGE MISS LATENCY: 142.145 cycles
cpu0_L2C TOTAL     ACCESS:    3279962  HIT:     137015  MISS:    3142947
cpu0_L2C LOAD      ACCESS:    3234258  HIT:     102254  MISS:    3132004
cpu0_L2C RFO       ACCESS:      11946  HIT:       2666  MISS:       9280
cpu0_L2C PREFETCH  ACCESS:          0  HIT:          0  MISS:          0
cpu0_L2C WRITEBACK ACCESS:      27809  HIT:      27431  MISS:        378
cpu0_L2C TRANSLATION ACCESS:       5949  HIT:       4664  MISS:       1285
cpu0_L2C PREFETCH  REQUESTED:          0  ISSUED:          0  USEFUL:          0  USELESS:          0
cpu0_L2C AVERAGE MISS LATENCY: 131.576 cycles
LLC TOTAL     ACCESS:    3162901  HIT:     960463  MISS:    2202438
LLC LOAD      ACCESS:    3132004  HIT:     939629  MISS:    2192375
LLC RFO       ACCESS:       9280  HIT:       4387  MISS:       4893
LLC PREFETCH  ACCESS:          0  HIT:          0  MISS:          0
LLC WRITEBACK ACCESS:      20332  HIT:      15653  MISS:       4679
LLC TRANSLATION ACCESS:       1285  HIT:        794  MISS:        491
LLC PREFETCH  REQUESTED:          0  ISSUED:          0  USEFUL:          0  USELESS:          0
LLC AVERAGE MISS LATENCY: 157.799 cycles
Insertion Distribution: 
	LOAD 27723 0 137791 2275098 
	RFO 19 0 2218 2971 
	PREF 0 0 0 0 
	WRITEBACK 0 0 0 4839 
	 0 0 37 477 
Total Prefetch Downgrades: 0

DRAM Statistics
 CHANNEL 0
 RQ ROW_BUFFER_HIT:     545599  ROW_BUFFER_MISS:    1652159
 DBUS AVG_CONGESTED_CYCLE:    3.91574
 WQ ROW_BUFFER_HIT:       2234  ROW_BUFFER_MISS:       3872  FULL:          0


CPU 0 Branch Prediction Accuracy: 90.7444% MPKI: 27.9345 Average ROB Occupancy at Mispredict: 19.3183
Branch type MPKI
BRANCH_DIRECT_JUMP: 0.00034
BRANCH_INDIRECT: 0.0087
BRANCH_CONDITIONAL: 27.8577
BRANCH_DIRECT_CALL: 0.00024
BRANCH_INDIRECT_CALL: 0.02508
BRANCH_RETURN: 0.04245

