
*** ChampSim Multicore Out-of-Order Simulator ***

Warmup Instructions: 10000000
Simulation Instructions: 100000000
Number of CPUs: 1
Off-chip DRAM Size: 4 GiB Channels: 1 Width: 64-bit Data Rate: 3200 MT/s

VirtualMemory physical capacity: 8588881920 num_ppages: 2096895
VirtualMemory page size: 4096 log2_page_size: 12

CPU 0 runs /Users/brandon/Documents/CoursesWi22/CSE240C/Homework2/traces/bzip2_281B.trace.xz
CPU 0 Bimodal branch predictor
Basic BTB sets: 1024 ways: 8 indirect buffer size: 4096 RAS size: 64
Initialize SRRIP state
Heartbeat CPU 0 instructions: 10000004 cycles: 3227453 heartbeat IPC: 3.09842 cumulative IPC: 3.09842 (Simulation time: 0 hr 0 min 58 sec) 

Warmup complete CPU 0 instructions: 10000004 cycles: 3227453 (Simulation time: 0 hr 0 min 58 sec) 

Heartbeat CPU 0 instructions: 20000000 cycles: 13813869 heartbeat IPC: 0.944606 cumulative IPC: 0.944606 (Simulation time: 0 hr 1 min 58 sec) 
Heartbeat CPU 0 instructions: 30000001 cycles: 25420642 heartbeat IPC: 0.861566 cumulative IPC: 0.901177 (Simulation time: 0 hr 3 min 32 sec) 
Heartbeat CPU 0 instructions: 40000002 cycles: 30035630 heartbeat IPC: 2.16685 cumulative IPC: 1.11906 (Simulation time: 0 hr 4 min 9 sec) 
Heartbeat CPU 0 instructions: 50000003 cycles: 34957462 heartbeat IPC: 2.03176 cumulative IPC: 1.26064 (Simulation time: 0 hr 4 min 47 sec) 
Heartbeat CPU 0 instructions: 60000000 cycles: 40111827 heartbeat IPC: 1.9401 cumulative IPC: 1.35559 (Simulation time: 0 hr 5 min 40 sec) 
Heartbeat CPU 0 instructions: 70000004 cycles: 47636106 heartbeat IPC: 1.32903 cumulative IPC: 1.35109 (Simulation time: 0 hr 7 min 5 sec) 
Heartbeat CPU 0 instructions: 80000003 cycles: 55254086 heartbeat IPC: 1.31268 cumulative IPC: 1.34546 (Simulation time: 0 hr 8 min 16 sec) 
Heartbeat CPU 0 instructions: 90000003 cycles: 61633383 heartbeat IPC: 1.56757 cumulative IPC: 1.36972 (Simulation time: 0 hr 8 min 58 sec) 
Heartbeat CPU 0 instructions: 100000001 cycles: 68278576 heartbeat IPC: 1.50485 cumulative IPC: 1.38353 (Simulation time: 0 hr 9 min 47 sec) 
Heartbeat CPU 0 instructions: 110000000 cycles: 75054879 heartbeat IPC: 1.47573 cumulative IPC: 1.39223 (Simulation time: 0 hr 10 min 42 sec) 
Finished CPU 0 instructions: 100000000 cycles: 71827428 cumulative IPC: 1.39223 (Simulation time: 0 hr 10 min 42 sec) 

ChampSim completed all CPUs

Region of Interest Statistics

CPU 0 cumulative IPC: 1.39223 instructions: 100000000 cycles: 71827428
cpu0_DTLB TOTAL     ACCESS:   19655033  HIT:   18896378  MISS:     758655
cpu0_DTLB LOAD      ACCESS:   13795334  HIT:   13149616  MISS:     645718
cpu0_DTLB RFO       ACCESS:    5859699  HIT:    5746762  MISS:     112937
cpu0_DTLB PREFETCH  ACCESS:          0  HIT:          0  MISS:          0
cpu0_DTLB WRITEBACK ACCESS:          0  HIT:          0  MISS:          0
cpu0_DTLB TRANSLATION ACCESS:          0  HIT:          0  MISS:          0
cpu0_DTLB PREFETCH  REQUESTED:          0  ISSUED:          0  USEFUL:          0  USELESS:          0
cpu0_DTLB AVERAGE MISS LATENCY: 9.33198 cycles
cpu0_ITLB TOTAL     ACCESS:    6410740  HIT:    6410726  MISS:         14
cpu0_ITLB LOAD      ACCESS:    6410740  HIT:    6410726  MISS:         14
cpu0_ITLB RFO       ACCESS:          0  HIT:          0  MISS:          0
cpu0_ITLB PREFETCH  ACCESS:          0  HIT:          0  MISS:          0
cpu0_ITLB WRITEBACK ACCESS:          0  HIT:          0  MISS:          0
cpu0_ITLB TRANSLATION ACCESS:          0  HIT:          0  MISS:          0
cpu0_ITLB PREFETCH  REQUESTED:          0  ISSUED:          0  USEFUL:          0  USELESS:          0
cpu0_ITLB AVERAGE MISS LATENCY: 220.929 cycles
cpu0_L1I TOTAL     ACCESS:    2685555  HIT:    2685201  MISS:        354
cpu0_L1I LOAD      ACCESS:    2685555  HIT:    2685201  MISS:        354
cpu0_L1I RFO       ACCESS:          0  HIT:          0  MISS:          0
cpu0_L1I PREFETCH  ACCESS:          0  HIT:          0  MISS:          0
cpu0_L1I WRITEBACK ACCESS:          0  HIT:          0  MISS:          0
cpu0_L1I TRANSLATION ACCESS:          0  HIT:          0  MISS:          0
cpu0_L1I PREFETCH  REQUESTED:          0  ISSUED:          0  USEFUL:          0  USELESS:          0
cpu0_L1I AVERAGE MISS LATENCY: 181.017 cycles
cpu0_STLB TOTAL     ACCESS:     758669  HIT:     757587  MISS:       1082
cpu0_STLB LOAD      ACCESS:     645732  HIT:     644825  MISS:        907
cpu0_STLB RFO       ACCESS:     112937  HIT:     112762  MISS:        175
cpu0_STLB PREFETCH  ACCESS:          0  HIT:          0  MISS:          0
cpu0_STLB WRITEBACK ACCESS:          0  HIT:          0  MISS:          0
cpu0_STLB TRANSLATION ACCESS:          0  HIT:          0  MISS:          0
cpu0_STLB PREFETCH  REQUESTED:          0  ISSUED:          0  USEFUL:          0  USELESS:          0
cpu0_STLB AVERAGE MISS LATENCY: 203.499 cycles
cpu0_L1D TOTAL     ACCESS:   23576723  HIT:   21977456  MISS:    1599267
cpu0_L1D LOAD      ACCESS:   13817156  HIT:   12424158  MISS:    1392998
cpu0_L1D RFO       ACCESS:    9758499  HIT:    9552734  MISS:     205765
cpu0_L1D PREFETCH  ACCESS:          0  HIT:          0  MISS:          0
cpu0_L1D WRITEBACK ACCESS:          0  HIT:          0  MISS:          0
cpu0_L1D TRANSLATION ACCESS:       1068  HIT:        564  MISS:        504
cpu0_L1D PREFETCH  REQUESTED:          0  ISSUED:          0  USEFUL:          0  USELESS:          0
cpu0_L1D AVERAGE MISS LATENCY: 84.2927 cycles
cpu0_L2C TOTAL     ACCESS:    1813926  HIT:     913988  MISS:     899938
cpu0_L2C LOAD      ACCESS:    1393347  HIT:     651661  MISS:     741686
cpu0_L2C RFO       ACCESS:     205751  HIT:      47760  MISS:     157991
cpu0_L2C PREFETCH  ACCESS:          0  HIT:          0  MISS:          0
cpu0_L2C WRITEBACK ACCESS:     214324  HIT:     214084  MISS:        240
cpu0_L2C TRANSLATION ACCESS:        504  HIT:        483  MISS:         21
cpu0_L2C PREFETCH  REQUESTED:          0  ISSUED:          0  USEFUL:          0  USELESS:          0
cpu0_L2C AVERAGE MISS LATENCY: 130.179 cycles
LLC TOTAL     ACCESS:    1058818  HIT:     834038  MISS:     224780
LLC LOAD      ACCESS:     741686  HIT:     617468  MISS:     124218
LLC RFO       ACCESS:     157979  HIT:      84900  MISS:      73079
LLC PREFETCH  ACCESS:          0  HIT:          0  MISS:          0
LLC WRITEBACK ACCESS:     159132  HIT:     131654  MISS:      27478
LLC TRANSLATION ACCESS:         21  HIT:         16  MISS:          5
LLC PREFETCH  REQUESTED:          0  ISSUED:          0  USEFUL:          0  USELESS:          0
LLC AVERAGE MISS LATENCY: 437.124 cycles
Insertion Distribution: 
	LOAD 25558 0 41605 78839 
	RFO 14321 0 49996 26431 
	PREF 0 0 0 0 
	WRITEBACK 0 0 0 27658 
	 0 0 16 0 
Total Prefetch Downgrades: 0

DRAM Statistics
 CHANNEL 0
 RQ ROW_BUFFER_HIT:      60136  ROW_BUFFER_MISS:     136776
 DBUS AVG_CONGESTED_CYCLE:    3.98555
 WQ ROW_BUFFER_HIT:       5108  ROW_BUFFER_MISS:      80223  FULL:        261


CPU 0 Branch Prediction Accuracy: 91.2056% MPKI: 12.1715 Average ROB Occupancy at Mispredict: 68.9762
Branch type MPKI
BRANCH_DIRECT_JUMP: 0.00059
BRANCH_INDIRECT: 0
BRANCH_CONDITIONAL: 12.1706
BRANCH_DIRECT_CALL: 0.00014
BRANCH_INDIRECT_CALL: 0
BRANCH_RETURN: 0.00019

