
*** ChampSim Multicore Out-of-Order Simulator ***

Warmup Instructions: 10000000
Simulation Instructions: 100000000
Number of CPUs: 1
Off-chip DRAM Size: 4 GiB Channels: 1 Width: 64-bit Data Rate: 3200 MT/s

VirtualMemory physical capacity: 8588881920 num_ppages: 2096895
VirtualMemory page size: 4096 log2_page_size: 12

CPU 0 runs /Users/brandon/Documents/CoursesWi22/CSE240C/Homework2/traces/cactusADM_1039B.trace.xz
CPU 0 Bimodal branch predictor
Basic BTB sets: 1024 ways: 8 indirect buffer size: 4096 RAS size: 64
Initialize SRRIP state
Heartbeat CPU 0 instructions: 10000004 cycles: 3647108 heartbeat IPC: 2.7419 cumulative IPC: 2.7419 (Simulation time: 0 hr 1 min 10 sec) 

Warmup complete CPU 0 instructions: 10000004 cycles: 3647108 (Simulation time: 0 hr 1 min 10 sec) 

Heartbeat CPU 0 instructions: 20000004 cycles: 13591256 heartbeat IPC: 1.00562 cumulative IPC: 1.00562 (Simulation time: 0 hr 3 min 30 sec) 
Heartbeat CPU 0 instructions: 30000000 cycles: 22714193 heartbeat IPC: 1.09614 cumulative IPC: 1.04893 (Simulation time: 0 hr 5 min 50 sec) 
Heartbeat CPU 0 instructions: 40000000 cycles: 32018393 heartbeat IPC: 1.07478 cumulative IPC: 1.05741 (Simulation time: 0 hr 8 min 17 sec) 
Heartbeat CPU 0 instructions: 50000004 cycles: 40760179 heartbeat IPC: 1.14393 cumulative IPC: 1.07779 (Simulation time: 0 hr 10 min 32 sec) 
Heartbeat CPU 0 instructions: 60000004 cycles: 46793122 heartbeat IPC: 1.65757 cumulative IPC: 1.15886 (Simulation time: 0 hr 12 min 28 sec) 
Heartbeat CPU 0 instructions: 70000002 cycles: 55609381 heartbeat IPC: 1.13427 cumulative IPC: 1.15468 (Simulation time: 0 hr 14 min 44 sec) 
Heartbeat CPU 0 instructions: 80000004 cycles: 64176999 heartbeat IPC: 1.16719 cumulative IPC: 1.15645 (Simulation time: 0 hr 16 min 51 sec) 
Heartbeat CPU 0 instructions: 90000004 cycles: 72739699 heartbeat IPC: 1.16786 cumulative IPC: 1.15787 (Simulation time: 0 hr 18 min 47 sec) 
Heartbeat CPU 0 instructions: 100000000 cycles: 78662939 heartbeat IPC: 1.68826 cumulative IPC: 1.19975 (Simulation time: 0 hr 20 min 23 sec) 
Heartbeat CPU 0 instructions: 110000003 cycles: 87123787 heartbeat IPC: 1.18191 cumulative IPC: 1.19794 (Simulation time: 0 hr 22 min 21 sec) 
Finished CPU 0 instructions: 100000004 cycles: 83476680 cumulative IPC: 1.19794 (Simulation time: 0 hr 22 min 21 sec) 

ChampSim completed all CPUs

Region of Interest Statistics

CPU 0 cumulative IPC: 1.19794 instructions: 100000004 cycles: 83476680
cpu0_DTLB TOTAL     ACCESS:   22824678  HIT:   20774439  MISS:    2050239
cpu0_DTLB LOAD      ACCESS:   18917227  HIT:   17483441  MISS:    1433786
cpu0_DTLB RFO       ACCESS:    3907451  HIT:    3290998  MISS:     616453
cpu0_DTLB PREFETCH  ACCESS:          0  HIT:          0  MISS:          0
cpu0_DTLB WRITEBACK ACCESS:          0  HIT:          0  MISS:          0
cpu0_DTLB TRANSLATION ACCESS:          0  HIT:          0  MISS:          0
cpu0_DTLB PREFETCH  REQUESTED:          0  ISSUED:          0  USEFUL:          0  USELESS:          0
cpu0_DTLB AVERAGE MISS LATENCY: 16.4577 cycles
cpu0_ITLB TOTAL     ACCESS:    1451319  HIT:    1451319  MISS:          0
cpu0_ITLB LOAD      ACCESS:    1451319  HIT:    1451319  MISS:          0
cpu0_ITLB RFO       ACCESS:          0  HIT:          0  MISS:          0
cpu0_ITLB PREFETCH  ACCESS:          0  HIT:          0  MISS:          0
cpu0_ITLB WRITEBACK ACCESS:          0  HIT:          0  MISS:          0
cpu0_ITLB TRANSLATION ACCESS:          0  HIT:          0  MISS:          0
cpu0_ITLB PREFETCH  REQUESTED:          0  ISSUED:          0  USEFUL:          0  USELESS:          0
cpu0_ITLB AVERAGE MISS LATENCY: nan cycles
cpu0_L1I TOTAL     ACCESS:    8114483  HIT:    8114480  MISS:          3
cpu0_L1I LOAD      ACCESS:    8114483  HIT:    8114480  MISS:          3
cpu0_L1I RFO       ACCESS:          0  HIT:          0  MISS:          0
cpu0_L1I PREFETCH  ACCESS:          0  HIT:          0  MISS:          0
cpu0_L1I WRITEBACK ACCESS:          0  HIT:          0  MISS:          0
cpu0_L1I TRANSLATION ACCESS:          0  HIT:          0  MISS:          0
cpu0_L1I PREFETCH  REQUESTED:          0  ISSUED:          0  USEFUL:          0  USELESS:          0
cpu0_L1I AVERAGE MISS LATENCY: 626.667 cycles
cpu0_STLB TOTAL     ACCESS:    2050239  HIT:    1130045  MISS:     920194
cpu0_STLB LOAD      ACCESS:    1433786  HIT:     835598  MISS:     598188
cpu0_STLB RFO       ACCESS:     616453  HIT:     294447  MISS:     322006
cpu0_STLB PREFETCH  ACCESS:          0  HIT:          0  MISS:          0
cpu0_STLB WRITEBACK ACCESS:          0  HIT:          0  MISS:          0
cpu0_STLB TRANSLATION ACCESS:          0  HIT:          0  MISS:          0
cpu0_STLB PREFETCH  REQUESTED:          0  ISSUED:          0  USEFUL:          0  USELESS:          0
cpu0_STLB AVERAGE MISS LATENCY: 16.4567 cycles
cpu0_L1D TOTAL     ACCESS:   37582070  HIT:   36258360  MISS:    1323710
cpu0_L1D LOAD      ACCESS:   25715890  HIT:   24663507  MISS:    1052383
cpu0_L1D RFO       ACCESS:   10946848  HIT:   10681477  MISS:     265371
cpu0_L1D PREFETCH  ACCESS:          0  HIT:          0  MISS:          0
cpu0_L1D WRITEBACK ACCESS:          0  HIT:          0  MISS:          0
cpu0_L1D TRANSLATION ACCESS:     919332  HIT:     913376  MISS:       5956
cpu0_L1D PREFETCH  REQUESTED:          0  ISSUED:          0  USEFUL:          0  USELESS:          0
cpu0_L1D AVERAGE MISS LATENCY: 300.803 cycles
cpu0_L2C TOTAL     ACCESS:    1592984  HIT:     694218  MISS:     898766
cpu0_L2C LOAD      ACCESS:    1052385  HIT:     419478  MISS:     632907
cpu0_L2C RFO       ACCESS:     265371  HIT:          0  MISS:     265371
cpu0_L2C PREFETCH  ACCESS:          0  HIT:          0  MISS:          0
cpu0_L2C WRITEBACK ACCESS:     269272  HIT:     269059  MISS:        213
cpu0_L2C TRANSLATION ACCESS:       5956  HIT:       5681  MISS:        275
cpu0_L2C PREFETCH  REQUESTED:          0  ISSUED:          0  USEFUL:          0  USELESS:          0
cpu0_L2C AVERAGE MISS LATENCY: 426.806 cycles
LLC TOTAL     ACCESS:    1165748  HIT:     343426  MISS:     822322
LLC LOAD      ACCESS:     632907  HIT:     165737  MISS:     467170
LLC RFO       ACCESS:     265371  HIT:      71911  MISS:     193460
LLC PREFETCH  ACCESS:          0  HIT:          0  MISS:          0
LLC WRITEBACK ACCESS:     267195  HIT:     105744  MISS:     161451
LLC TRANSLATION ACCESS:        275  HIT:         34  MISS:        241
LLC PREFETCH  REQUESTED:          0  ISSUED:          0  USEFUL:          0  USELESS:          0
LLC AVERAGE MISS LATENCY: 443.534 cycles
Insertion Distribution: 
	LOAD 45451 0 77037 394756 
	RFO 17509 0 18690 168542 
	PREF 0 0 0 0 
	WRITEBACK 0 0 0 164359 
	 0 0 55 228 
Total Prefetch Downgrades: 0

DRAM Statistics
 CHANNEL 0
 RQ ROW_BUFFER_HIT:       6796  ROW_BUFFER_MISS:     654057
 DBUS AVG_CONGESTED_CYCLE:    3.97661
 WQ ROW_BUFFER_HIT:      16668  ROW_BUFFER_MISS:     203433  FULL:        536


CPU 0 Branch Prediction Accuracy: 97.7479% MPKI: 0.04701 Average ROB Occupancy at Mispredict: 283.973
Branch type MPKI
BRANCH_DIRECT_JUMP: 0
BRANCH_INDIRECT: 0
BRANCH_CONDITIONAL: 0.04701
BRANCH_DIRECT_CALL: 0
BRANCH_INDIRECT_CALL: 0
BRANCH_RETURN: 0

