
*** ChampSim Multicore Out-of-Order Simulator ***

Warmup Instructions: 10000000
Simulation Instructions: 100000000
Number of CPUs: 1
Off-chip DRAM Size: 4 GiB Channels: 1 Width: 64-bit Data Rate: 3200 MT/s

VirtualMemory physical capacity: 8588881920 num_ppages: 2096895
VirtualMemory page size: 4096 log2_page_size: 12

CPU 0 runs /Users/brandon/Documents/CoursesWi22/CSE240C/Homework2/traces/hmmer_7B.trace.xz
CPU 0 Bimodal branch predictor
Basic BTB sets: 1024 ways: 8 indirect buffer size: 4096 RAS size: 64
Initialize SRRIP state
Heartbeat CPU 0 instructions: 10000004 cycles: 3986073 heartbeat IPC: 2.50874 cumulative IPC: 2.50874 (Simulation time: 0 hr 1 min 16 sec) 

Warmup complete CPU 0 instructions: 10000004 cycles: 3986073 (Simulation time: 0 hr 1 min 16 sec) 

Heartbeat CPU 0 instructions: 20000004 cycles: 9249428 heartbeat IPC: 1.89993 cumulative IPC: 1.89993 (Simulation time: 0 hr 2 min 57 sec) 
Heartbeat CPU 0 instructions: 30000001 cycles: 13944680 heartbeat IPC: 2.12981 cumulative IPC: 2.00831 (Simulation time: 0 hr 4 min 33 sec) 
Heartbeat CPU 0 instructions: 40000001 cycles: 18465981 heartbeat IPC: 2.21175 cumulative IPC: 2.07184 (Simulation time: 0 hr 6 min 8 sec) 
Heartbeat CPU 0 instructions: 50000000 cycles: 23532375 heartbeat IPC: 1.97379 cumulative IPC: 2.04642 (Simulation time: 0 hr 7 min 48 sec) 
Heartbeat CPU 0 instructions: 60000000 cycles: 27860077 heartbeat IPC: 2.3107 cumulative IPC: 2.09433 (Simulation time: 0 hr 9 min 21 sec) 
Heartbeat CPU 0 instructions: 70000003 cycles: 32182386 heartbeat IPC: 2.31358 cumulative IPC: 2.12794 (Simulation time: 0 hr 10 min 52 sec) 
Heartbeat CPU 0 instructions: 80000001 cycles: 36492463 heartbeat IPC: 2.32014 cumulative IPC: 2.15342 (Simulation time: 0 hr 12 min 26 sec) 
Heartbeat CPU 0 instructions: 90000004 cycles: 40811512 heartbeat IPC: 2.31533 cumulative IPC: 2.17241 (Simulation time: 0 hr 13 min 58 sec) 
Heartbeat CPU 0 instructions: 100000002 cycles: 45129840 heartbeat IPC: 2.31571 cumulative IPC: 2.18745 (Simulation time: 0 hr 15 min 29 sec) 
Heartbeat CPU 0 instructions: 110000001 cycles: 49459162 heartbeat IPC: 2.30983 cumulative IPC: 2.1991 (Simulation time: 0 hr 16 min 59 sec) 
Finished CPU 0 instructions: 100000002 cycles: 45473090 cumulative IPC: 2.1991 (Simulation time: 0 hr 16 min 59 sec) 

ChampSim completed all CPUs

Region of Interest Statistics

CPU 0 cumulative IPC: 2.1991 instructions: 100000002 cycles: 45473090
cpu0_DTLB TOTAL     ACCESS:   40545641  HIT:   40531488  MISS:      14153
cpu0_DTLB LOAD      ACCESS:   32390476  HIT:   32382758  MISS:       7718
cpu0_DTLB RFO       ACCESS:    8155165  HIT:    8148730  MISS:       6435
cpu0_DTLB PREFETCH  ACCESS:          0  HIT:          0  MISS:          0
cpu0_DTLB WRITEBACK ACCESS:          0  HIT:          0  MISS:          0
cpu0_DTLB TRANSLATION ACCESS:          0  HIT:          0  MISS:          0
cpu0_DTLB PREFETCH  REQUESTED:          0  ISSUED:          0  USEFUL:          0  USELESS:          0
cpu0_DTLB AVERAGE MISS LATENCY: 14.3348 cycles
cpu0_ITLB TOTAL     ACCESS:     801142  HIT:     801070  MISS:         72
cpu0_ITLB LOAD      ACCESS:     801142  HIT:     801070  MISS:         72
cpu0_ITLB RFO       ACCESS:          0  HIT:          0  MISS:          0
cpu0_ITLB PREFETCH  ACCESS:          0  HIT:          0  MISS:          0
cpu0_ITLB WRITEBACK ACCESS:          0  HIT:          0  MISS:          0
cpu0_ITLB TRANSLATION ACCESS:          0  HIT:          0  MISS:          0
cpu0_ITLB PREFETCH  REQUESTED:          0  ISSUED:          0  USEFUL:          0  USELESS:          0
cpu0_ITLB AVERAGE MISS LATENCY: 21 cycles
cpu0_L1I TOTAL     ACCESS:      62041  HIT:      61936  MISS:        105
cpu0_L1I LOAD      ACCESS:      62041  HIT:      61936  MISS:        105
cpu0_L1I RFO       ACCESS:          0  HIT:          0  MISS:          0
cpu0_L1I PREFETCH  ACCESS:          0  HIT:          0  MISS:          0
cpu0_L1I WRITEBACK ACCESS:          0  HIT:          0  MISS:          0
cpu0_L1I TRANSLATION ACCESS:          0  HIT:          0  MISS:          0
cpu0_L1I PREFETCH  REQUESTED:          0  ISSUED:          0  USEFUL:          0  USELESS:          0
cpu0_L1I AVERAGE MISS LATENCY: 105.905 cycles
cpu0_STLB TOTAL     ACCESS:      14225  HIT:      13770  MISS:        455
cpu0_STLB LOAD      ACCESS:       7790  HIT:       7782  MISS:          8
cpu0_STLB RFO       ACCESS:       6435  HIT:       5988  MISS:        447
cpu0_STLB PREFETCH  ACCESS:          0  HIT:          0  MISS:          0
cpu0_STLB WRITEBACK ACCESS:          0  HIT:          0  MISS:          0
cpu0_STLB TRANSLATION ACCESS:          0  HIT:          0  MISS:          0
cpu0_STLB PREFETCH  REQUESTED:          0  ISSUED:          0  USEFUL:          0  USELESS:          0
cpu0_STLB AVERAGE MISS LATENCY: 167.64 cycles
cpu0_L1D TOTAL     ACCESS:   33464392  HIT:   32994294  MISS:     470098
cpu0_L1D LOAD      ACCESS:   28671886  HIT:   28510519  MISS:     161367
cpu0_L1D RFO       ACCESS:    4792052  HIT:    4483344  MISS:     308708
cpu0_L1D PREFETCH  ACCESS:          0  HIT:          0  MISS:          0
cpu0_L1D WRITEBACK ACCESS:          0  HIT:          0  MISS:          0
cpu0_L1D TRANSLATION ACCESS:        454  HIT:        431  MISS:         23
cpu0_L1D PREFETCH  REQUESTED:          0  ISSUED:          0  USEFUL:          0  USELESS:          0
cpu0_L1D AVERAGE MISS LATENCY: 232.894 cycles
cpu0_L2C TOTAL     ACCESS:     777268  HIT:     473821  MISS:     303447
cpu0_L2C LOAD      ACCESS:     161472  HIT:     148971  MISS:      12501
cpu0_L2C RFO       ACCESS:     308708  HIT:      17819  MISS:     290889
cpu0_L2C PREFETCH  ACCESS:          0  HIT:          0  MISS:          0
cpu0_L2C WRITEBACK ACCESS:     307065  HIT:     307017  MISS:         48
cpu0_L2C TRANSLATION ACCESS:         23  HIT:         14  MISS:          9
cpu0_L2C PREFETCH  REQUESTED:          0  ISSUED:          0  USEFUL:          0  USELESS:          0
cpu0_L2C AVERAGE MISS LATENCY: 343.776 cycles
LLC TOTAL     ACCESS:     593656  HIT:     442762  MISS:     150894
LLC LOAD      ACCESS:      12500  HIT:      11144  MISS:       1356
LLC RFO       ACCESS:     290889  HIT:     207978  MISS:      82911
LLC PREFETCH  ACCESS:          0  HIT:          0  MISS:          0
LLC WRITEBACK ACCESS:     290258  HIT:     223631  MISS:      66627
LLC TRANSLATION ACCESS:          9  HIT:          9  MISS:          0
LLC PREFETCH  REQUESTED:          0  ISSUED:          0  USEFUL:          0  USELESS:          0
LLC AVERAGE MISS LATENCY: 648.898 cycles
Insertion Distribution: 
	LOAD 361 0 3426 121 
	RFO 2907 0 34129 76594 
	PREF 0 0 0 0 
	WRITEBACK 0 0 0 67437 
	 0 0 12 0 
Total Prefetch Downgrades: 0

DRAM Statistics
 CHANNEL 0
 RQ ROW_BUFFER_HIT:       1703  ROW_BUFFER_MISS:      82558
 DBUS AVG_CONGESTED_CYCLE:    3.99356
 WQ ROW_BUFFER_HIT:       4833  ROW_BUFFER_MISS:      75461  FULL:      19372


CPU 0 Branch Prediction Accuracy: 98.9368% MPKI: 0.40856 Average ROB Occupancy at Mispredict: 252.35
Branch type MPKI
BRANCH_DIRECT_JUMP: 0.00016
BRANCH_INDIRECT: 0.00157
BRANCH_CONDITIONAL: 0.40659
BRANCH_DIRECT_CALL: 9e-05
BRANCH_INDIRECT_CALL: 3e-05
BRANCH_RETURN: 0.00012

