
*** ChampSim Multicore Out-of-Order Simulator ***

Warmup Instructions: 10000000
Simulation Instructions: 100000000
Number of CPUs: 1
Off-chip DRAM Size: 4 GiB Channels: 1 Width: 64-bit Data Rate: 3200 MT/s

VirtualMemory physical capacity: 8588881920 num_ppages: 2096895
VirtualMemory page size: 4096 log2_page_size: 12

CPU 0 runs /Users/brandon/Documents/CoursesWi22/CSE240C/Homework2/traces/libquantum_964B.trace.xz
CPU 0 Bimodal branch predictor
Basic BTB sets: 1024 ways: 8 indirect buffer size: 4096 RAS size: 64
Initialize SRRIP state
Heartbeat CPU 0 instructions: 10000001 cycles: 2500058 heartbeat IPC: 3.99991 cumulative IPC: 3.99991 (Simulation time: 0 hr 0 min 29 sec) 

Warmup complete CPU 0 instructions: 10000001 cycles: 2500058 (Simulation time: 0 hr 0 min 29 sec) 

Heartbeat CPU 0 instructions: 20000002 cycles: 18165595 heartbeat IPC: 0.638344 cumulative IPC: 0.638344 (Simulation time: 0 hr 1 min 29 sec) 
Heartbeat CPU 0 instructions: 30000004 cycles: 42876780 heartbeat IPC: 0.404675 cumulative IPC: 0.495335 (Simulation time: 0 hr 4 min 20 sec) 
Heartbeat CPU 0 instructions: 40000001 cycles: 63773530 heartbeat IPC: 0.478543 cumulative IPC: 0.489608 (Simulation time: 0 hr 7 min 24 sec) 
Heartbeat CPU 0 instructions: 50000003 cycles: 68769455 heartbeat IPC: 2.00163 cumulative IPC: 0.603597 (Simulation time: 0 hr 8 min 20 sec) 
Heartbeat CPU 0 instructions: 60000004 cycles: 79564823 heartbeat IPC: 0.926323 cumulative IPC: 0.648805 (Simulation time: 0 hr 9 min 17 sec) 
Heartbeat CPU 0 instructions: 70000003 cycles: 95032800 heartbeat IPC: 0.646497 cumulative IPC: 0.648419 (Simulation time: 0 hr 10 min 18 sec) 
Heartbeat CPU 0 instructions: 80000002 cycles: 122851934 heartbeat IPC: 0.359465 cumulative IPC: 0.581628 (Simulation time: 0 hr 14 min 14 sec) 
Heartbeat CPU 0 instructions: 90000001 cycles: 138761921 heartbeat IPC: 0.628536 cumulative IPC: 0.587105 (Simulation time: 0 hr 17 min 5 sec) 
Heartbeat CPU 0 instructions: 100000001 cycles: 143602382 heartbeat IPC: 2.06592 cumulative IPC: 0.637835 (Simulation time: 0 hr 18 min 14 sec) 
Heartbeat CPU 0 instructions: 110000003 cycles: 169289262 heartbeat IPC: 0.389304 cumulative IPC: 0.599559 (Simulation time: 0 hr 22 min 44 sec) 
Finished CPU 0 instructions: 100000002 cycles: 166789204 cumulative IPC: 0.599559 (Simulation time: 0 hr 22 min 44 sec) 

ChampSim completed all CPUs

Region of Interest Statistics

CPU 0 cumulative IPC: 0.599559 instructions: 100000002 cycles: 166789204
cpu0_DTLB TOTAL     ACCESS:    9069237  HIT:    9016239  MISS:      52998
cpu0_DTLB LOAD      ACCESS:    6193718  HIT:    6162528  MISS:      31190
cpu0_DTLB RFO       ACCESS:    2875519  HIT:    2853711  MISS:      21808
cpu0_DTLB PREFETCH  ACCESS:          0  HIT:          0  MISS:          0
cpu0_DTLB WRITEBACK ACCESS:          0  HIT:          0  MISS:          0
cpu0_DTLB TRANSLATION ACCESS:          0  HIT:          0  MISS:          0
cpu0_DTLB PREFETCH  REQUESTED:          0  ISSUED:          0  USEFUL:          0  USELESS:          0
cpu0_DTLB AVERAGE MISS LATENCY: 38.4736 cycles
cpu0_ITLB TOTAL     ACCESS:    1927004  HIT:    1927003  MISS:          1
cpu0_ITLB LOAD      ACCESS:    1927004  HIT:    1927003  MISS:          1
cpu0_ITLB RFO       ACCESS:          0  HIT:          0  MISS:          0
cpu0_ITLB PREFETCH  ACCESS:          0  HIT:          0  MISS:          0
cpu0_ITLB WRITEBACK ACCESS:          0  HIT:          0  MISS:          0
cpu0_ITLB TRANSLATION ACCESS:          0  HIT:          0  MISS:          0
cpu0_ITLB PREFETCH  REQUESTED:          0  ISSUED:          0  USEFUL:          0  USELESS:          0
cpu0_ITLB AVERAGE MISS LATENCY: 217 cycles
cpu0_L1I TOTAL     ACCESS:         11  HIT:          7  MISS:          4
cpu0_L1I LOAD      ACCESS:         11  HIT:          7  MISS:          4
cpu0_L1I RFO       ACCESS:          0  HIT:          0  MISS:          0
cpu0_L1I PREFETCH  ACCESS:          0  HIT:          0  MISS:          0
cpu0_L1I WRITEBACK ACCESS:          0  HIT:          0  MISS:          0
cpu0_L1I TRANSLATION ACCESS:          0  HIT:          0  MISS:          0
cpu0_L1I PREFETCH  REQUESTED:          0  ISSUED:          0  USEFUL:          0  USELESS:          0
cpu0_L1I AVERAGE MISS LATENCY: 258 cycles
cpu0_STLB TOTAL     ACCESS:      52999  HIT:          0  MISS:      52999
cpu0_STLB LOAD      ACCESS:      31191  HIT:          0  MISS:      31191
cpu0_STLB RFO       ACCESS:      21808  HIT:          0  MISS:      21808
cpu0_STLB PREFETCH  ACCESS:          0  HIT:          0  MISS:          0
cpu0_STLB WRITEBACK ACCESS:          0  HIT:          0  MISS:          0
cpu0_STLB TRANSLATION ACCESS:          0  HIT:          0  MISS:          0
cpu0_STLB PREFETCH  REQUESTED:          0  ISSUED:          0  USEFUL:          0  USELESS:          0
cpu0_STLB AVERAGE MISS LATENCY: 29.477 cycles
cpu0_L1D TOTAL     ACCESS:    9383759  HIT:    5993314  MISS:    3390445
cpu0_L1D LOAD      ACCESS:    3615038  HIT:     224654  MISS:    3390384
cpu0_L1D RFO       ACCESS:    5715722  HIT:    5715698  MISS:         24
cpu0_L1D PREFETCH  ACCESS:          0  HIT:          0  MISS:          0
cpu0_L1D WRITEBACK ACCESS:          0  HIT:          0  MISS:          0
cpu0_L1D TRANSLATION ACCESS:      52999  HIT:      52962  MISS:         37
cpu0_L1D PREFETCH  REQUESTED:          0  ISSUED:          0  USEFUL:          0  USELESS:          0
cpu0_L1D AVERAGE MISS LATENCY: 422.191 cycles
cpu0_L2C TOTAL     ACCESS:    4919988  HIT:    1529539  MISS:    3390449
cpu0_L2C LOAD      ACCESS:    3390388  HIT:          0  MISS:    3390388
cpu0_L2C RFO       ACCESS:         24  HIT:          0  MISS:         24
cpu0_L2C PREFETCH  ACCESS:          0  HIT:          0  MISS:          0
cpu0_L2C WRITEBACK ACCESS:    1529539  HIT:    1529539  MISS:          0
cpu0_L2C TRANSLATION ACCESS:         37  HIT:          0  MISS:         37
cpu0_L2C PREFETCH  REQUESTED:          0  ISSUED:          0  USEFUL:          0  USELESS:          0
cpu0_L2C AVERAGE MISS LATENCY: 411.189 cycles
LLC TOTAL     ACCESS:    4913649  HIT:     263001  MISS:    4650648
LLC LOAD      ACCESS:    3390388  HIT:     183501  MISS:    3206887
LLC RFO       ACCESS:         24  HIT:         20  MISS:          4
LLC PREFETCH  ACCESS:          0  HIT:          0  MISS:          0
LLC WRITEBACK ACCESS:    1523200  HIT:      79459  MISS:    1443741
LLC TRANSLATION ACCESS:         37  HIT:         21  MISS:         16
LLC PREFETCH  REQUESTED:          0  ISSUED:          0  USEFUL:          0  USELESS:          0
LLC AVERAGE MISS LATENCY: 284.163 cycles
Insertion Distribution: 
	LOAD 23792 0 46728 3413367 
	RFO 0 0 8 0 
	PREF 0 0 0 0 
	WRITEBACK 0 0 0 1457024 
	 0 0 14 14 
Total Prefetch Downgrades: 0

DRAM Statistics
 CHANNEL 0
 RQ ROW_BUFFER_HIT:    1754084  ROW_BUFFER_MISS:    1452823
 DBUS AVG_CONGESTED_CYCLE:    3.89958
 WQ ROW_BUFFER_HIT:     256994  ROW_BUFFER_MISS:    1193241  FULL:     216536


CPU 0 Branch Prediction Accuracy: 98.7463% MPKI: 2.70066 Average ROB Occupancy at Mispredict: 44.7851
Branch type MPKI
BRANCH_DIRECT_JUMP: 1e-05
BRANCH_INDIRECT: 0
BRANCH_CONDITIONAL: 2.70053
BRANCH_DIRECT_CALL: 6e-05
BRANCH_INDIRECT_CALL: 0
BRANCH_RETURN: 6e-05

