
*** ChampSim Multicore Out-of-Order Simulator ***

Warmup Instructions: 10000000
Simulation Instructions: 100000000
Number of CPUs: 1
Off-chip DRAM Size: 4 GiB Channels: 1 Width: 64-bit Data Rate: 3200 MT/s

VirtualMemory physical capacity: 8588881920 num_ppages: 2096895
VirtualMemory page size: 4096 log2_page_size: 12

CPU 0 runs /Users/brandon/Documents/CoursesWi22/CSE240C/Homework2/traces/perlbench_135B.trace.xz
CPU 0 Bimodal branch predictor
Basic BTB sets: 1024 ways: 8 indirect buffer size: 4096 RAS size: 64
Initialize SRRIP state
Heartbeat CPU 0 instructions: 10000000 cycles: 2501131 heartbeat IPC: 3.99819 cumulative IPC: 3.99819 (Simulation time: 0 hr 0 min 43 sec) 

Warmup complete CPU 0 instructions: 10000004 cycles: 2501132 (Simulation time: 0 hr 0 min 43 sec) 

Heartbeat CPU 0 instructions: 20000003 cycles: 16331393 heartbeat IPC: 0.723052 cumulative IPC: 0.723052 (Simulation time: 0 hr 1 min 35 sec) 
Heartbeat CPU 0 instructions: 30000004 cycles: 29114976 heartbeat IPC: 0.782253 cumulative IPC: 0.751489 (Simulation time: 0 hr 2 min 28 sec) 
Heartbeat CPU 0 instructions: 40000001 cycles: 40565287 heartbeat IPC: 0.873338 cumulative IPC: 0.788143 (Simulation time: 0 hr 3 min 20 sec) 
Heartbeat CPU 0 instructions: 50000000 cycles: 53156296 heartbeat IPC: 0.794217 cumulative IPC: 0.789653 (Simulation time: 0 hr 4 min 14 sec) 
Heartbeat CPU 0 instructions: 60000000 cycles: 64717620 heartbeat IPC: 0.864953 cumulative IPC: 0.803645 (Simulation time: 0 hr 5 min 4 sec) 
Heartbeat CPU 0 instructions: 70000001 cycles: 77651548 heartbeat IPC: 0.77316 cumulative IPC: 0.798399 (Simulation time: 0 hr 5 min 57 sec) 
Heartbeat CPU 0 instructions: 80000000 cycles: 88649509 heartbeat IPC: 0.909259 cumulative IPC: 0.812552 (Simulation time: 0 hr 6 min 44 sec) 
Heartbeat CPU 0 instructions: 90000004 cycles: 99529604 heartbeat IPC: 0.91911 cumulative IPC: 0.8245 (Simulation time: 0 hr 7 min 36 sec) 
Heartbeat CPU 0 instructions: 100000000 cycles: 112998196 heartbeat IPC: 0.742468 cumulative IPC: 0.814501 (Simulation time: 0 hr 8 min 28 sec) 
Heartbeat CPU 0 instructions: 110000000 cycles: 126291974 heartbeat IPC: 0.752232 cumulative IPC: 0.807814 (Simulation time: 0 hr 9 min 21 sec) 
Finished CPU 0 instructions: 100000000 cycles: 123790844 cumulative IPC: 0.807814 (Simulation time: 0 hr 9 min 21 sec) 

ChampSim completed all CPUs

Region of Interest Statistics

CPU 0 cumulative IPC: 0.807814 instructions: 100000000 cycles: 123790844
cpu0_DTLB TOTAL     ACCESS:   24833863  HIT:   24177116  MISS:     656747
cpu0_DTLB LOAD      ACCESS:   16163282  HIT:   15591840  MISS:     571442
cpu0_DTLB RFO       ACCESS:    8670581  HIT:    8585276  MISS:      85305
cpu0_DTLB PREFETCH  ACCESS:          0  HIT:          0  MISS:          0
cpu0_DTLB WRITEBACK ACCESS:          0  HIT:          0  MISS:          0
cpu0_DTLB TRANSLATION ACCESS:          0  HIT:          0  MISS:          0
cpu0_DTLB PREFETCH  REQUESTED:          0  ISSUED:          0  USEFUL:          0  USELESS:          0
cpu0_DTLB AVERAGE MISS LATENCY: 9.30023 cycles
cpu0_ITLB TOTAL     ACCESS:    8520151  HIT:    8441987  MISS:      78164
cpu0_ITLB LOAD      ACCESS:    8520151  HIT:    8441987  MISS:      78164
cpu0_ITLB RFO       ACCESS:          0  HIT:          0  MISS:          0
cpu0_ITLB PREFETCH  ACCESS:          0  HIT:          0  MISS:          0
cpu0_ITLB WRITEBACK ACCESS:          0  HIT:          0  MISS:          0
cpu0_ITLB TRANSLATION ACCESS:          0  HIT:          0  MISS:          0
cpu0_ITLB PREFETCH  REQUESTED:          0  ISSUED:          0  USEFUL:          0  USELESS:          0
cpu0_ITLB AVERAGE MISS LATENCY: 9.11285 cycles
cpu0_L1I TOTAL     ACCESS:    9977424  HIT:    9297115  MISS:     680309
cpu0_L1I LOAD      ACCESS:    9977424  HIT:    9297115  MISS:     680309
cpu0_L1I RFO       ACCESS:          0  HIT:          0  MISS:          0
cpu0_L1I PREFETCH  ACCESS:          0  HIT:          0  MISS:          0
cpu0_L1I WRITEBACK ACCESS:          0  HIT:          0  MISS:          0
cpu0_L1I TRANSLATION ACCESS:          0  HIT:          0  MISS:          0
cpu0_L1I PREFETCH  REQUESTED:          0  ISSUED:          0  USEFUL:          0  USELESS:          0
cpu0_L1I AVERAGE MISS LATENCY: 12.2011 cycles
cpu0_STLB TOTAL     ACCESS:     734911  HIT:     726458  MISS:       8453
cpu0_STLB LOAD      ACCESS:     649606  HIT:     642241  MISS:       7365
cpu0_STLB RFO       ACCESS:      85305  HIT:      84217  MISS:       1088
cpu0_STLB PREFETCH  ACCESS:          0  HIT:          0  MISS:          0
cpu0_STLB WRITEBACK ACCESS:          0  HIT:          0  MISS:          0
cpu0_STLB TRANSLATION ACCESS:          0  HIT:          0  MISS:          0
cpu0_STLB PREFETCH  REQUESTED:          0  ISSUED:          0  USEFUL:          0  USELESS:          0
cpu0_STLB AVERAGE MISS LATENCY: 23.8858 cycles
cpu0_L1D TOTAL     ACCESS:   32037824  HIT:   31085057  MISS:     952767
cpu0_L1D LOAD      ACCESS:   16947149  HIT:   16082717  MISS:     864432
cpu0_L1D RFO       ACCESS:   15082256  HIT:   14995476  MISS:      86780
cpu0_L1D PREFETCH  ACCESS:          0  HIT:          0  MISS:          0
cpu0_L1D WRITEBACK ACCESS:          0  HIT:          0  MISS:          0
cpu0_L1D TRANSLATION ACCESS:       8419  HIT:       6864  MISS:       1555
cpu0_L1D PREFETCH  REQUESTED:          0  ISSUED:          0  USEFUL:          0  USELESS:          0
cpu0_L1D AVERAGE MISS LATENCY: 17.6425 cycles
cpu0_L2C TOTAL     ACCESS:    1889386  HIT:    1714460  MISS:     174926
cpu0_L2C LOAD      ACCESS:    1544725  HIT:    1392675  MISS:     152050
cpu0_L2C RFO       ACCESS:      86773  HIT:      64405  MISS:      22368
cpu0_L2C PREFETCH  ACCESS:          0  HIT:          0  MISS:          0
cpu0_L2C WRITEBACK ACCESS:     256333  HIT:     255903  MISS:        430
cpu0_L2C TRANSLATION ACCESS:       1555  HIT:       1477  MISS:         78
cpu0_L2C PREFETCH  REQUESTED:          0  ISSUED:          0  USEFUL:          0  USELESS:          0
cpu0_L2C AVERAGE MISS LATENCY: 40.6978 cycles
LLC TOTAL     ACCESS:     226222  HIT:     201796  MISS:      24426
LLC LOAD      ACCESS:     152050  HIT:     133843  MISS:      18207
LLC RFO       ACCESS:      22368  HIT:      17127  MISS:       5241
LLC PREFETCH  ACCESS:          0  HIT:          0  MISS:          0
LLC WRITEBACK ACCESS:      51726  HIT:      50748  MISS:        978
LLC TRANSLATION ACCESS:         78  HIT:         78  MISS:          0
LLC PREFETCH  REQUESTED:          0  ISSUED:          0  USEFUL:          0  USELESS:          0
LLC AVERAGE MISS LATENCY: 141.433 cycles
Insertion Distribution: 
	LOAD 7531 0 30554 808 
	RFO 508 0 5808 897 
	PREF 0 0 0 0 
	WRITEBACK 0 0 0 983 
	 0 0 23 0 
Total Prefetch Downgrades: 0

DRAM Statistics
 CHANNEL 0
 RQ ROW_BUFFER_HIT:       4627  ROW_BUFFER_MISS:      18820
 DBUS AVG_CONGESTED_CYCLE:    3.83983
 WQ ROW_BUFFER_HIT:       1328  ROW_BUFFER_MISS:       4139  FULL:          0


CPU 0 Branch Prediction Accuracy: 94.5426% MPKI: 12.0745 Average ROB Occupancy at Mispredict: 40.8988
Branch type MPKI
BRANCH_DIRECT_JUMP: 0.00217
BRANCH_INDIRECT: 0.80239
BRANCH_CONDITIONAL: 9.8183
BRANCH_DIRECT_CALL: 0.00216
BRANCH_INDIRECT_CALL: 1.42497
BRANCH_RETURN: 0.02455

