
*** ChampSim Multicore Out-of-Order Simulator ***

Warmup Instructions: 10000000
Simulation Instructions: 100000000
Number of CPUs: 1
Off-chip DRAM Size: 4 GiB Channels: 1 Width: 64-bit Data Rate: 3200 MT/s

VirtualMemory physical capacity: 8588881920 num_ppages: 2096895
VirtualMemory page size: 4096 log2_page_size: 12

CPU 0 runs /Users/brandon/Documents/CoursesWi22/CSE240C/Homework2/traces/wrf_1650B.trace.xz
CPU 0 Bimodal branch predictor
Basic BTB sets: 1024 ways: 8 indirect buffer size: 4096 RAS size: 64
Initialize SRRIP state
Heartbeat CPU 0 instructions: 10000001 cycles: 2500100 heartbeat IPC: 3.99984 cumulative IPC: 3.99984 (Simulation time: 0 hr 0 min 32 sec) 

Warmup complete CPU 0 instructions: 10000001 cycles: 2500100 (Simulation time: 0 hr 0 min 32 sec) 

Heartbeat CPU 0 instructions: 20000004 cycles: 12137552 heartbeat IPC: 1.03762 cumulative IPC: 1.03762 (Simulation time: 0 hr 1 min 44 sec) 
Heartbeat CPU 0 instructions: 30000000 cycles: 21774145 heartbeat IPC: 1.03771 cumulative IPC: 1.03766 (Simulation time: 0 hr 2 min 56 sec) 
Heartbeat CPU 0 instructions: 40000002 cycles: 31416518 heartbeat IPC: 1.03709 cumulative IPC: 1.03747 (Simulation time: 0 hr 4 min 8 sec) 
Heartbeat CPU 0 instructions: 50000001 cycles: 47761749 heartbeat IPC: 0.611799 cumulative IPC: 0.88375 (Simulation time: 0 hr 6 min 11 sec) 
Heartbeat CPU 0 instructions: 60000000 cycles: 60018990 heartbeat IPC: 0.815844 cumulative IPC: 0.86928 (Simulation time: 0 hr 8 min 31 sec) 
Heartbeat CPU 0 instructions: 70000002 cycles: 75842933 heartbeat IPC: 0.631954 cumulative IPC: 0.818076 (Simulation time: 0 hr 10 min 42 sec) 
Heartbeat CPU 0 instructions: 80000004 cycles: 91628326 heartbeat IPC: 0.633497 cumulative IPC: 0.785385 (Simulation time: 0 hr 12 min 48 sec) 
Heartbeat CPU 0 instructions: 90000002 cycles: 107329876 heartbeat IPC: 0.63688 cumulative IPC: 0.763142 (Simulation time: 0 hr 14 min 54 sec) 
Heartbeat CPU 0 instructions: 100000004 cycles: 127537253 heartbeat IPC: 0.494869 cumulative IPC: 0.719786 (Simulation time: 0 hr 17 min 37 sec) 
Heartbeat CPU 0 instructions: 110000004 cycles: 145799140 heartbeat IPC: 0.547589 cumulative IPC: 0.697841 (Simulation time: 0 hr 20 min 3 sec) 
Finished CPU 0 instructions: 100000003 cycles: 143299040 cumulative IPC: 0.697841 (Simulation time: 0 hr 20 min 3 sec) 

ChampSim completed all CPUs

Region of Interest Statistics

CPU 0 cumulative IPC: 0.697841 instructions: 100000003 cycles: 143299040
cpu0_DTLB TOTAL     ACCESS:   16152817  HIT:   16122052  MISS:      30765
cpu0_DTLB LOAD      ACCESS:   14730198  HIT:   14706177  MISS:      24021
cpu0_DTLB RFO       ACCESS:    1422619  HIT:    1415875  MISS:       6744
cpu0_DTLB PREFETCH  ACCESS:          0  HIT:          0  MISS:          0
cpu0_DTLB WRITEBACK ACCESS:          0  HIT:          0  MISS:          0
cpu0_DTLB TRANSLATION ACCESS:          0  HIT:          0  MISS:          0
cpu0_DTLB PREFETCH  REQUESTED:          0  ISSUED:          0  USEFUL:          0  USELESS:          0
cpu0_DTLB AVERAGE MISS LATENCY: 147.333 cycles
cpu0_ITLB TOTAL     ACCESS:    6815544  HIT:    6815517  MISS:         27
cpu0_ITLB LOAD      ACCESS:    6815544  HIT:    6815517  MISS:         27
cpu0_ITLB RFO       ACCESS:          0  HIT:          0  MISS:          0
cpu0_ITLB PREFETCH  ACCESS:          0  HIT:          0  MISS:          0
cpu0_ITLB WRITEBACK ACCESS:          0  HIT:          0  MISS:          0
cpu0_ITLB TRANSLATION ACCESS:          0  HIT:          0  MISS:          0
cpu0_ITLB PREFETCH  REQUESTED:          0  ISSUED:          0  USEFUL:          0  USELESS:          0
cpu0_ITLB AVERAGE MISS LATENCY: 223.778 cycles
cpu0_L1I TOTAL     ACCESS:    1672419  HIT:    1671875  MISS:        544
cpu0_L1I LOAD      ACCESS:    1672419  HIT:    1671875  MISS:        544
cpu0_L1I RFO       ACCESS:          0  HIT:          0  MISS:          0
cpu0_L1I PREFETCH  ACCESS:          0  HIT:          0  MISS:          0
cpu0_L1I WRITEBACK ACCESS:          0  HIT:          0  MISS:          0
cpu0_L1I TRANSLATION ACCESS:          0  HIT:          0  MISS:          0
cpu0_L1I PREFETCH  REQUESTED:          0  ISSUED:          0  USEFUL:          0  USELESS:          0
cpu0_L1I AVERAGE MISS LATENCY: 348.994 cycles
cpu0_STLB TOTAL     ACCESS:      30792  HIT:      16562  MISS:      14230
cpu0_STLB LOAD      ACCESS:      24048  HIT:      13008  MISS:      11040
cpu0_STLB RFO       ACCESS:       6744  HIT:       3554  MISS:       3190
cpu0_STLB PREFETCH  ACCESS:          0  HIT:          0  MISS:          0
cpu0_STLB WRITEBACK ACCESS:          0  HIT:          0  MISS:          0
cpu0_STLB TRANSLATION ACCESS:          0  HIT:          0  MISS:          0
cpu0_STLB PREFETCH  REQUESTED:          0  ISSUED:          0  USEFUL:          0  USELESS:          0
cpu0_STLB AVERAGE MISS LATENCY: 299.481 cycles
cpu0_L1D TOTAL     ACCESS:   14658889  HIT:   13626753  MISS:    1032136
cpu0_L1D LOAD      ACCESS:   12370212  HIT:   11552749  MISS:     817463
cpu0_L1D RFO       ACCESS:    2275827  HIT:    2061728  MISS:     214099
cpu0_L1D PREFETCH  ACCESS:          0  HIT:          0  MISS:          0
cpu0_L1D WRITEBACK ACCESS:          0  HIT:          0  MISS:          0
cpu0_L1D TRANSLATION ACCESS:      12850  HIT:      12276  MISS:        574
cpu0_L1D PREFETCH  REQUESTED:          0  ISSUED:          0  USEFUL:          0  USELESS:          0
cpu0_L1D AVERAGE MISS LATENCY: 231.948 cycles
cpu0_L2C TOTAL     ACCESS:    1279193  HIT:     490198  MISS:     788995
cpu0_L2C LOAD      ACCESS:     817999  HIT:     229418  MISS:     588581
cpu0_L2C RFO       ACCESS:     214095  HIT:      13794  MISS:     200301
cpu0_L2C PREFETCH  ACCESS:          0  HIT:          0  MISS:          0
cpu0_L2C WRITEBACK ACCESS:     246525  HIT:     246453  MISS:         72
cpu0_L2C TRANSLATION ACCESS:        574  HIT:        533  MISS:         41
cpu0_L2C PREFETCH  REQUESTED:          0  ISSUED:          0  USEFUL:          0  USELESS:          0
cpu0_L2C AVERAGE MISS LATENCY: 289.261 cycles
LLC TOTAL     ACCESS:    1004907  HIT:      98118  MISS:     906789
LLC LOAD      ACCESS:     588581  HIT:      33423  MISS:     555158
LLC RFO       ACCESS:     200301  HIT:         63  MISS:     200238
LLC PREFETCH  ACCESS:          0  HIT:          0  MISS:          0
LLC WRITEBACK ACCESS:     215984  HIT:      64604  MISS:     151380
LLC TRANSLATION ACCESS:         41  HIT:         28  MISS:         13
LLC PREFETCH  REQUESTED:          0  ISSUED:          0  USEFUL:          0  USELESS:          0
LLC AVERAGE MISS LATENCY: 233.415 cycles
Insertion Distribution: 
	LOAD 3640 0 102893 459391 
	RFO 0 0 49024 155390 
	PREF 0 0 0 0 
	WRITEBACK 0 0 0 151380 
	 0 0 28 0 
Total Prefetch Downgrades: 0

DRAM Statistics
 CHANNEL 0
 RQ ROW_BUFFER_HIT:      27174  ROW_BUFFER_MISS:     728209
 DBUS AVG_CONGESTED_CYCLE:    3.92625
 WQ ROW_BUFFER_HIT:      39652  ROW_BUFFER_MISS:     168127  FULL:          0


CPU 0 Branch Prediction Accuracy: 83.2596% MPKI: 18.9931 Average ROB Occupancy at Mispredict: 252.873
Branch type MPKI
BRANCH_DIRECT_JUMP: 0.0005
BRANCH_INDIRECT: 0
BRANCH_CONDITIONAL: 18.9921
BRANCH_DIRECT_CALL: 0.00023
BRANCH_INDIRECT_CALL: 0
BRANCH_RETURN: 0.00022

