
*** ChampSim Multicore Out-of-Order Simulator ***

Warmup Instructions: 10000000
Simulation Instructions: 100000000
Number of CPUs: 1
Off-chip DRAM Size: 4 GiB Channels: 1 Width: 64-bit Data Rate: 3200 MT/s

VirtualMemory physical capacity: 8588881920 num_ppages: 2096895
VirtualMemory page size: 4096 log2_page_size: 12

CPU 0 runs /datasets/cs240c-wi22-a00-public/data/Assignment2/GemsFDTD_716B.trace.xz
CPU 0 Bimodal branch predictor
Basic BTB sets: 1024 ways: 8 indirect buffer size: 4096 RAS size: 64
Initialize Hawkeye state
Heartbeat CPU 0 instructions: 10000004 cycles: 2536408 heartbeat IPC: 3.94258 cumulative IPC: 3.94258 (Simulation time: 0 hr 0 min 33 sec) 

Warmup complete CPU 0 instructions: 10000004 cycles: 2536408 (Simulation time: 0 hr 0 min 33 sec) 

Heartbeat CPU 0 instructions: 20000003 cycles: 24469553 heartbeat IPC: 0.455931 cumulative IPC: 0.455931 (Simulation time: 0 hr 3 min 3 sec) 
Heartbeat CPU 0 instructions: 30000002 cycles: 38069663 heartbeat IPC: 0.735288 cumulative IPC: 0.562853 (Simulation time: 0 hr 4 min 56 sec) 
Heartbeat CPU 0 instructions: 40000000 cycles: 49448197 heartbeat IPC: 0.878848 cumulative IPC: 0.639498 (Simulation time: 0 hr 6 min 36 sec) 
Heartbeat CPU 0 instructions: 50000002 cycles: 67470234 heartbeat IPC: 0.554876 cumulative IPC: 0.616012 (Simulation time: 0 hr 8 min 49 sec) 
Heartbeat CPU 0 instructions: 60000002 cycles: 83317473 heartbeat IPC: 0.631025 cumulative IPC: 0.618957 (Simulation time: 0 hr 10 min 50 sec) 
Heartbeat CPU 0 instructions: 70000004 cycles: 95515771 heartbeat IPC: 0.819787 cumulative IPC: 0.645305 (Simulation time: 0 hr 12 min 33 sec) 
Heartbeat CPU 0 instructions: 80000003 cycles: 109898130 heartbeat IPC: 0.695296 cumulative IPC: 0.652001 (Simulation time: 0 hr 14 min 26 sec) 
Heartbeat CPU 0 instructions: 90000001 cycles: 128266407 heartbeat IPC: 0.544417 cumulative IPC: 0.636284 (Simulation time: 0 hr 16 min 38 sec) 
Heartbeat CPU 0 instructions: 100000001 cycles: 141323207 heartbeat IPC: 0.765884 cumulative IPC: 0.648477 (Simulation time: 0 hr 18 min 24 sec) 
Heartbeat CPU 0 instructions: 110000001 cycles: 152987693 heartbeat IPC: 0.857303 cumulative IPC: 0.664667 (Simulation time: 0 hr 20 min 5 sec) 
Finished CPU 0 instructions: 100000002 cycles: 150451286 cumulative IPC: 0.664667 (Simulation time: 0 hr 20 min 5 sec) 

ChampSim completed all CPUs

Region of Interest Statistics

CPU 0 cumulative IPC: 0.664667 instructions: 100000002 cycles: 150451286
cpu0_DTLB TOTAL     ACCESS:   29890271  HIT:   26860459  MISS:    3029812
cpu0_DTLB LOAD      ACCESS:   20918382  HIT:   17889469  MISS:    3028913
cpu0_DTLB RFO       ACCESS:    8971889  HIT:    8970990  MISS:        899
cpu0_DTLB PREFETCH  ACCESS:          0  HIT:          0  MISS:          0
cpu0_DTLB WRITEBACK ACCESS:          0  HIT:          0  MISS:          0
cpu0_DTLB TRANSLATION ACCESS:          0  HIT:          0  MISS:          0
cpu0_DTLB PREFETCH  REQUESTED:          0  ISSUED:          0  USEFUL:          0  USELESS:          0
cpu0_DTLB AVERAGE MISS LATENCY: 13.8611 cycles
cpu0_ITLB TOTAL     ACCESS:    1848064  HIT:    1848062  MISS:          2
cpu0_ITLB LOAD      ACCESS:    1848064  HIT:    1848062  MISS:          2
cpu0_ITLB RFO       ACCESS:          0  HIT:          0  MISS:          0
cpu0_ITLB PREFETCH  ACCESS:          0  HIT:          0  MISS:          0
cpu0_ITLB WRITEBACK ACCESS:          0  HIT:          0  MISS:          0
cpu0_ITLB TRANSLATION ACCESS:          0  HIT:          0  MISS:          0
cpu0_ITLB PREFETCH  REQUESTED:          0  ISSUED:          0  USEFUL:          0  USELESS:          0
cpu0_ITLB AVERAGE MISS LATENCY: 413 cycles
cpu0_L1I TOTAL     ACCESS:    7857570  HIT:    7857448  MISS:        122
cpu0_L1I LOAD      ACCESS:    7857570  HIT:    7857448  MISS:        122
cpu0_L1I RFO       ACCESS:          0  HIT:          0  MISS:          0
cpu0_L1I PREFETCH  ACCESS:          0  HIT:          0  MISS:          0
cpu0_L1I WRITEBACK ACCESS:          0  HIT:          0  MISS:          0
cpu0_L1I TRANSLATION ACCESS:          0  HIT:          0  MISS:          0
cpu0_L1I PREFETCH  REQUESTED:          0  ISSUED:          0  USEFUL:          0  USELESS:          0
cpu0_L1I AVERAGE MISS LATENCY: 271.566 cycles
cpu0_STLB TOTAL     ACCESS:    3029814  HIT:    2757364  MISS:     272450
cpu0_STLB LOAD      ACCESS:    3028915  HIT:    2756465  MISS:     272450
cpu0_STLB RFO       ACCESS:        899  HIT:        899  MISS:          0
cpu0_STLB PREFETCH  ACCESS:          0  HIT:          0  MISS:          0
cpu0_STLB WRITEBACK ACCESS:          0  HIT:          0  MISS:          0
cpu0_STLB TRANSLATION ACCESS:          0  HIT:          0  MISS:          0
cpu0_STLB PREFETCH  REQUESTED:          0  ISSUED:          0  USEFUL:          0  USELESS:          0
cpu0_STLB AVERAGE MISS LATENCY: 51.6724 cycles
cpu0_L1D TOTAL     ACCESS:   34792147  HIT:   26549336  MISS:    8242811
cpu0_L1D LOAD      ACCESS:   22660089  HIT:   14440888  MISS:    8219201
cpu0_L1D RFO       ACCESS:   11864995  HIT:   11864989  MISS:          6
cpu0_L1D PREFETCH  ACCESS:          0  HIT:          0  MISS:          0
cpu0_L1D WRITEBACK ACCESS:          0  HIT:          0  MISS:          0
cpu0_L1D TRANSLATION ACCESS:     267063  HIT:     243459  MISS:      23604
cpu0_L1D PREFETCH  REQUESTED:          0  ISSUED:          0  USEFUL:          0  USELESS:          0
cpu0_L1D AVERAGE MISS LATENCY: 68.5445 cycles
cpu0_L2C TOTAL     ACCESS:    9425517  HIT:    7964516  MISS:    1461001
cpu0_L2C LOAD      ACCESS:    8219323  HIT:    6758946  MISS:    1460377
cpu0_L2C RFO       ACCESS:          6  HIT:          6  MISS:          0
cpu0_L2C PREFETCH  ACCESS:          0  HIT:          0  MISS:          0
cpu0_L2C WRITEBACK ACCESS:    1182584  HIT:    1182547  MISS:         37
cpu0_L2C TRANSLATION ACCESS:      23604  HIT:      23017  MISS:        587
cpu0_L2C PREFETCH  REQUESTED:          0  ISSUED:          0  USEFUL:          0  USELESS:          0
cpu0_L2C AVERAGE MISS LATENCY: 322.721 cycles
LLC TOTAL     ACCESS:    1476348  HIT:      53263  MISS:    1423085
LLC LOAD      ACCESS:    1460367  HIT:      40863  MISS:    1419504
LLC RFO       ACCESS:          0  HIT:          0  MISS:          0
LLC PREFETCH  ACCESS:          0  HIT:          0  MISS:          0
LLC WRITEBACK ACCESS:      15394  HIT:      12167  MISS:       3227
LLC TRANSLATION ACCESS:        587  HIT:        233  MISS:        354
LLC PREFETCH  REQUESTED:          0  ISSUED:          0  USEFUL:          0  USELESS:          0
LLC AVERAGE MISS LATENCY: 309.76 cycles
OPTgen accesses: 24418
OPTgen hits: 1723
OPTgen hit rate: 7.05627



DRAM Statistics
 CHANNEL 0
 RQ ROW_BUFFER_HIT:         74  ROW_BUFFER_MISS:    1419627
 DBUS AVG_CONGESTED_CYCLE:    3.94802
 WQ ROW_BUFFER_HIT:       1301  ROW_BUFFER_MISS:       7287  FULL:          0


CPU 0 Branch Prediction Accuracy: 98.9038% MPKI: 0.06477 Average ROB Occupancy at Mispredict: 248.679
Branch type MPKI
BRANCH_DIRECT_JUMP: 0
BRANCH_INDIRECT: 0
BRANCH_CONDITIONAL: 0.06477
BRANCH_DIRECT_CALL: 0
BRANCH_INDIRECT_CALL: 0
BRANCH_RETURN: 0

