
*** ChampSim Multicore Out-of-Order Simulator ***

Warmup Instructions: 10000000
Simulation Instructions: 100000000
Number of CPUs: 1
Off-chip DRAM Size: 4 GiB Channels: 1 Width: 64-bit Data Rate: 3200 MT/s

VirtualMemory physical capacity: 8588881920 num_ppages: 2096895
VirtualMemory page size: 4096 log2_page_size: 12

CPU 0 runs /datasets/cs240c-wi22-a00-public/data/Assignment2/h264ref_351B.trace.xz
CPU 0 Bimodal branch predictor
Basic BTB sets: 1024 ways: 8 indirect buffer size: 4096 RAS size: 64
Initialize Hawkeye state
Heartbeat CPU 0 instructions: 10000003 cycles: 3499507 heartbeat IPC: 2.85755 cumulative IPC: 2.85755 (Simulation time: 0 hr 0 min 54 sec) 

Warmup complete CPU 0 instructions: 10000003 cycles: 3499507 (Simulation time: 0 hr 0 min 54 sec) 

Heartbeat CPU 0 instructions: 20000000 cycles: 12296491 heartbeat IPC: 1.13675 cumulative IPC: 1.13675 (Simulation time: 0 hr 1 min 43 sec) 
Heartbeat CPU 0 instructions: 30000000 cycles: 18650354 heartbeat IPC: 1.57385 cumulative IPC: 1.32006 (Simulation time: 0 hr 2 min 51 sec) 
Heartbeat CPU 0 instructions: 40000001 cycles: 24795586 heartbeat IPC: 1.62728 cumulative IPC: 1.40871 (Simulation time: 0 hr 4 min 1 sec) 
Heartbeat CPU 0 instructions: 50000000 cycles: 31411300 heartbeat IPC: 1.51155 cumulative IPC: 1.43309 (Simulation time: 0 hr 4 min 54 sec) 
Heartbeat CPU 0 instructions: 60000004 cycles: 39213390 heartbeat IPC: 1.28171 cumulative IPC: 1.40002 (Simulation time: 0 hr 5 min 47 sec) 
Heartbeat CPU 0 instructions: 70000001 cycles: 45325949 heartbeat IPC: 1.63598 cumulative IPC: 1.4345 (Simulation time: 0 hr 6 min 58 sec) 
Heartbeat CPU 0 instructions: 80000004 cycles: 51292290 heartbeat IPC: 1.67607 cumulative IPC: 1.46466 (Simulation time: 0 hr 8 min 7 sec) 
Heartbeat CPU 0 instructions: 90000004 cycles: 58104984 heartbeat IPC: 1.46785 cumulative IPC: 1.46505 (Simulation time: 0 hr 8 min 56 sec) 
Heartbeat CPU 0 instructions: 100000001 cycles: 65564104 heartbeat IPC: 1.34064 cumulative IPC: 1.4501 (Simulation time: 0 hr 9 min 53 sec) 
Heartbeat CPU 0 instructions: 110000001 cycles: 71662893 heartbeat IPC: 1.63967 cumulative IPC: 1.46706 (Simulation time: 0 hr 11 min 4 sec) 
Finished CPU 0 instructions: 100000003 cycles: 68163387 cumulative IPC: 1.46706 (Simulation time: 0 hr 11 min 4 sec) 

ChampSim completed all CPUs

Region of Interest Statistics

CPU 0 cumulative IPC: 1.46706 instructions: 100000003 cycles: 68163387
cpu0_DTLB TOTAL     ACCESS:   22000611  HIT:   21964720  MISS:      35891
cpu0_DTLB LOAD      ACCESS:   18624106  HIT:   18591322  MISS:      32784
cpu0_DTLB RFO       ACCESS:    3376505  HIT:    3373398  MISS:       3107
cpu0_DTLB PREFETCH  ACCESS:          0  HIT:          0  MISS:          0
cpu0_DTLB WRITEBACK ACCESS:          0  HIT:          0  MISS:          0
cpu0_DTLB TRANSLATION ACCESS:          0  HIT:          0  MISS:          0
cpu0_DTLB PREFETCH  REQUESTED:          0  ISSUED:          0  USEFUL:          0  USELESS:          0
cpu0_DTLB AVERAGE MISS LATENCY: 12.3322 cycles
cpu0_ITLB TOTAL     ACCESS:    6592779  HIT:    6592319  MISS:        460
cpu0_ITLB LOAD      ACCESS:    6592779  HIT:    6592319  MISS:        460
cpu0_ITLB RFO       ACCESS:          0  HIT:          0  MISS:          0
cpu0_ITLB PREFETCH  ACCESS:          0  HIT:          0  MISS:          0
cpu0_ITLB WRITEBACK ACCESS:          0  HIT:          0  MISS:          0
cpu0_ITLB TRANSLATION ACCESS:          0  HIT:          0  MISS:          0
cpu0_ITLB PREFETCH  REQUESTED:          0  ISSUED:          0  USEFUL:          0  USELESS:          0
cpu0_ITLB AVERAGE MISS LATENCY: 26.5717 cycles
cpu0_L1I TOTAL     ACCESS:    4925203  HIT:    4899789  MISS:      25414
cpu0_L1I LOAD      ACCESS:    4925203  HIT:    4899789  MISS:      25414
cpu0_L1I RFO       ACCESS:          0  HIT:          0  MISS:          0
cpu0_L1I PREFETCH  ACCESS:          0  HIT:          0  MISS:          0
cpu0_L1I WRITEBACK ACCESS:          0  HIT:          0  MISS:          0
cpu0_L1I TRANSLATION ACCESS:          0  HIT:          0  MISS:          0
cpu0_L1I PREFETCH  REQUESTED:          0  ISSUED:          0  USEFUL:          0  USELESS:          0
cpu0_L1I AVERAGE MISS LATENCY: 41.3428 cycles
cpu0_STLB TOTAL     ACCESS:      36351  HIT:      35219  MISS:       1132
cpu0_STLB LOAD      ACCESS:      33244  HIT:      32344  MISS:        900
cpu0_STLB RFO       ACCESS:       3107  HIT:       2875  MISS:        232
cpu0_STLB PREFETCH  ACCESS:          0  HIT:          0  MISS:          0
cpu0_STLB WRITEBACK ACCESS:          0  HIT:          0  MISS:          0
cpu0_STLB TRANSLATION ACCESS:          0  HIT:          0  MISS:          0
cpu0_STLB PREFETCH  REQUESTED:          0  ISSUED:          0  USEFUL:          0  USELESS:          0
cpu0_STLB AVERAGE MISS LATENCY: 111.984 cycles
cpu0_L1D TOTAL     ACCESS:   23784267  HIT:   23469928  MISS:     314339
cpu0_L1D LOAD      ACCESS:   17649244  HIT:   17422356  MISS:     226888
cpu0_L1D RFO       ACCESS:    6133927  HIT:    6046718  MISS:      87209
cpu0_L1D PREFETCH  ACCESS:          0  HIT:          0  MISS:          0
cpu0_L1D WRITEBACK ACCESS:          0  HIT:          0  MISS:          0
cpu0_L1D TRANSLATION ACCESS:       1096  HIT:        854  MISS:        242
cpu0_L1D PREFETCH  REQUESTED:          0  ISSUED:          0  USEFUL:          0  USELESS:          0
cpu0_L1D AVERAGE MISS LATENCY: 79.8984 cycles
cpu0_L2C TOTAL     ACCESS:     428249  HIT:     237291  MISS:     190958
cpu0_L2C LOAD      ACCESS:     252302  HIT:     142294  MISS:     110008
cpu0_L2C RFO       ACCESS:      87209  HIT:       6450  MISS:      80759
cpu0_L2C PREFETCH  ACCESS:          0  HIT:          0  MISS:          0
cpu0_L2C WRITEBACK ACCESS:      88496  HIT:      88337  MISS:        159
cpu0_L2C TRANSLATION ACCESS:        242  HIT:        210  MISS:         32
cpu0_L2C PREFETCH  REQUESTED:          0  ISSUED:          0  USEFUL:          0  USELESS:          0
cpu0_L2C AVERAGE MISS LATENCY: 117.386 cycles
LLC TOTAL     ACCESS:     266228  HIT:     181660  MISS:      84568
LLC LOAD      ACCESS:     110008  HIT:      61789  MISS:      48219
LLC RFO       ACCESS:      80759  HIT:      49912  MISS:      30847
LLC PREFETCH  ACCESS:          0  HIT:          0  MISS:          0
LLC WRITEBACK ACCESS:      75429  HIT:      69942  MISS:       5487
LLC TRANSLATION ACCESS:         32  HIT:         17  MISS:         15
LLC PREFETCH  REQUESTED:          0  ISSUED:          0  USEFUL:          0  USELESS:          0
LLC AVERAGE MISS LATENCY: 217.679 cycles
OPTgen accesses: 3326
OPTgen hits: 2195
OPTgen hit rate: 65.9952



DRAM Statistics
 CHANNEL 0
 RQ ROW_BUFFER_HIT:      26592  ROW_BUFFER_MISS:      52441
 DBUS AVG_CONGESTED_CYCLE:    3.92147
 WQ ROW_BUFFER_HIT:       4396  ROW_BUFFER_MISS:      29049  FULL:        205


CPU 0 Branch Prediction Accuracy: 92.8368% MPKI: 5.81059 Average ROB Occupancy at Mispredict: 122.825
Branch type MPKI
BRANCH_DIRECT_JUMP: 0.00172
BRANCH_INDIRECT: 0.00314
BRANCH_CONDITIONAL: 5.80098
BRANCH_DIRECT_CALL: 0.00111
BRANCH_INDIRECT_CALL: 0.00157
BRANCH_RETURN: 0.00207

