
*** ChampSim Multicore Out-of-Order Simulator ***

Warmup Instructions: 10000000
Simulation Instructions: 100000000
Number of CPUs: 1
Off-chip DRAM Size: 4 GiB Channels: 1 Width: 64-bit Data Rate: 3200 MT/s

VirtualMemory physical capacity: 8588881920 num_ppages: 2096895
VirtualMemory page size: 4096 log2_page_size: 12

CPU 0 runs /datasets/cs240c-wi22-a00-public/data/Assignment2/milc_409B.trace.xz
CPU 0 Bimodal branch predictor
Basic BTB sets: 1024 ways: 8 indirect buffer size: 4096 RAS size: 64
Initialize Hawkeye state
Heartbeat CPU 0 instructions: 10000000 cycles: 3019991 heartbeat IPC: 3.31127 cumulative IPC: 3.31127 (Simulation time: 0 hr 0 min 44 sec) 

Warmup complete CPU 0 instructions: 10000004 cycles: 3019992 (Simulation time: 0 hr 0 min 44 sec) 

Heartbeat CPU 0 instructions: 20000002 cycles: 19713151 heartbeat IPC: 0.599048 cumulative IPC: 0.599048 (Simulation time: 0 hr 2 min 36 sec) 
Heartbeat CPU 0 instructions: 30000001 cycles: 36358279 heartbeat IPC: 0.600776 cumulative IPC: 0.599911 (Simulation time: 0 hr 4 min 27 sec) 
Heartbeat CPU 0 instructions: 40000004 cycles: 52951173 heartbeat IPC: 0.602668 cumulative IPC: 0.600827 (Simulation time: 0 hr 6 min 16 sec) 
Heartbeat CPU 0 instructions: 50000000 cycles: 69560988 heartbeat IPC: 0.602053 cumulative IPC: 0.601133 (Simulation time: 0 hr 8 min 7 sec) 
Heartbeat CPU 0 instructions: 60000004 cycles: 91277768 heartbeat IPC: 0.460474 cumulative IPC: 0.566522 (Simulation time: 0 hr 10 min 38 sec) 
Heartbeat CPU 0 instructions: 70000003 cycles: 107047673 heartbeat IPC: 0.634119 cumulative IPC: 0.57677 (Simulation time: 0 hr 12 min 22 sec) 
Heartbeat CPU 0 instructions: 80000002 cycles: 123064852 heartbeat IPC: 0.62433 cumulative IPC: 0.583115 (Simulation time: 0 hr 14 min 4 sec) 
Heartbeat CPU 0 instructions: 90000001 cycles: 139005079 heartbeat IPC: 0.627344 cumulative IPC: 0.5883 (Simulation time: 0 hr 15 min 46 sec) 
Heartbeat CPU 0 instructions: 100000001 cycles: 155002858 heartbeat IPC: 0.625087 cumulative IPC: 0.592172 (Simulation time: 0 hr 17 min 30 sec) 
Heartbeat CPU 0 instructions: 110000003 cycles: 174977866 heartbeat IPC: 0.500626 cumulative IPC: 0.581538 (Simulation time: 0 hr 20 min 37 sec) 
Finished CPU 0 instructions: 100000004 cycles: 171957875 cumulative IPC: 0.581538 (Simulation time: 0 hr 20 min 37 sec) 

ChampSim completed all CPUs

Region of Interest Statistics

CPU 0 cumulative IPC: 0.581538 instructions: 100000004 cycles: 171957875
cpu0_DTLB TOTAL     ACCESS:   14823534  HIT:   14648368  MISS:     175166
cpu0_DTLB LOAD      ACCESS:    7378288  HIT:    7205263  MISS:     173025
cpu0_DTLB RFO       ACCESS:    7445246  HIT:    7443105  MISS:       2141
cpu0_DTLB PREFETCH  ACCESS:          0  HIT:          0  MISS:          0
cpu0_DTLB WRITEBACK ACCESS:          0  HIT:          0  MISS:          0
cpu0_DTLB TRANSLATION ACCESS:          0  HIT:          0  MISS:          0
cpu0_DTLB PREFETCH  REQUESTED:          0  ISSUED:          0  USEFUL:          0  USELESS:          0
cpu0_DTLB AVERAGE MISS LATENCY: 105.46 cycles
cpu0_ITLB TOTAL     ACCESS:    2820798  HIT:    2820794  MISS:          4
cpu0_ITLB LOAD      ACCESS:    2820798  HIT:    2820794  MISS:          4
cpu0_ITLB RFO       ACCESS:          0  HIT:          0  MISS:          0
cpu0_ITLB PREFETCH  ACCESS:          0  HIT:          0  MISS:          0
cpu0_ITLB WRITEBACK ACCESS:          0  HIT:          0  MISS:          0
cpu0_ITLB TRANSLATION ACCESS:          0  HIT:          0  MISS:          0
cpu0_ITLB PREFETCH  REQUESTED:          0  ISSUED:          0  USEFUL:          0  USELESS:          0
cpu0_ITLB AVERAGE MISS LATENCY: 225 cycles
cpu0_L1I TOTAL     ACCESS:    7041654  HIT:    7041603  MISS:         51
cpu0_L1I LOAD      ACCESS:    7041654  HIT:    7041603  MISS:         51
cpu0_L1I RFO       ACCESS:          0  HIT:          0  MISS:          0
cpu0_L1I PREFETCH  ACCESS:          0  HIT:          0  MISS:          0
cpu0_L1I WRITEBACK ACCESS:          0  HIT:          0  MISS:          0
cpu0_L1I TRANSLATION ACCESS:          0  HIT:          0  MISS:          0
cpu0_L1I PREFETCH  REQUESTED:          0  ISSUED:          0  USEFUL:          0  USELESS:          0
cpu0_L1I AVERAGE MISS LATENCY: 188.843 cycles
cpu0_STLB TOTAL     ACCESS:     175170  HIT:          0  MISS:     175170
cpu0_STLB LOAD      ACCESS:     173029  HIT:          0  MISS:     173029
cpu0_STLB RFO       ACCESS:       2141  HIT:          0  MISS:       2141
cpu0_STLB PREFETCH  ACCESS:          0  HIT:          0  MISS:          0
cpu0_STLB WRITEBACK ACCESS:          0  HIT:          0  MISS:          0
cpu0_STLB TRANSLATION ACCESS:          0  HIT:          0  MISS:          0
cpu0_STLB PREFETCH  REQUESTED:          0  ISSUED:          0  USEFUL:          0  USELESS:          0
cpu0_STLB AVERAGE MISS LATENCY: 96.4626 cycles
cpu0_L1D TOTAL     ACCESS:   28493547  HIT:   26676059  MISS:    1817488
cpu0_L1D LOAD      ACCESS:    6439221  HIT:    4758631  MISS:    1680590
cpu0_L1D RFO       ACCESS:   21879159  HIT:   21742312  MISS:     136847
cpu0_L1D PREFETCH  ACCESS:          0  HIT:          0  MISS:          0
cpu0_L1D WRITEBACK ACCESS:          0  HIT:          0  MISS:          0
cpu0_L1D TRANSLATION ACCESS:     175167  HIT:     175116  MISS:         51
cpu0_L1D PREFETCH  REQUESTED:          0  ISSUED:          0  USEFUL:          0  USELESS:          0
cpu0_L1D AVERAGE MISS LATENCY: 382.297 cycles
cpu0_L2C TOTAL     ACCESS:    2676936  HIT:     859383  MISS:    1817553
cpu0_L2C LOAD      ACCESS:    1680641  HIT:          0  MISS:    1680641
cpu0_L2C RFO       ACCESS:     136847  HIT:          0  MISS:     136847
cpu0_L2C PREFETCH  ACCESS:          0  HIT:          0  MISS:          0
cpu0_L2C WRITEBACK ACCESS:     859397  HIT:     859383  MISS:         14
cpu0_L2C TRANSLATION ACCESS:         51  HIT:          0  MISS:         51
cpu0_L2C PREFETCH  REQUESTED:          0  ISSUED:          0  USEFUL:          0  USELESS:          0
cpu0_L2C AVERAGE MISS LATENCY: 371.24 cycles
LLC TOTAL     ACCESS:    2673600  HIT:      93809  MISS:    2579791
LLC LOAD      ACCESS:    1680641  HIT:      14593  MISS:    1666048
LLC RFO       ACCESS:     136847  HIT:      13607  MISS:     123240
LLC PREFETCH  ACCESS:          0  HIT:          0  MISS:          0
LLC WRITEBACK ACCESS:     856061  HIT:      65606  MISS:     790455
LLC TRANSLATION ACCESS:         51  HIT:          3  MISS:         48
LLC PREFETCH  REQUESTED:          0  ISSUED:          0  USEFUL:          0  USELESS:          0
LLC AVERAGE MISS LATENCY: 246.757 cycles
OPTgen accesses: 34616
OPTgen hits: 720
OPTgen hit rate: 2.07996



DRAM Statistics
 CHANNEL 0
 RQ ROW_BUFFER_HIT:     248296  ROW_BUFFER_MISS:    1541027
 DBUS AVG_CONGESTED_CYCLE:    3.96984
 WQ ROW_BUFFER_HIT:      46080  ROW_BUFFER_MISS:     781332  FULL:          0


CPU 0 Branch Prediction Accuracy: 99.9987% MPKI: 0.00058 Average ROB Occupancy at Mispredict: 56.7586
Branch type MPKI
BRANCH_DIRECT_JUMP: 0.0001
BRANCH_INDIRECT: 0
BRANCH_CONDITIONAL: 0.00033
BRANCH_DIRECT_CALL: 8e-05
BRANCH_INDIRECT_CALL: 0
BRANCH_RETURN: 7e-05

