
*** ChampSim Multicore Out-of-Order Simulator ***

Warmup Instructions: 10000000
Simulation Instructions: 100000000
Number of CPUs: 1
Off-chip DRAM Size: 4 GiB Channels: 1 Width: 64-bit Data Rate: 3200 MT/s

VirtualMemory physical capacity: 8588881920 num_ppages: 2096895
VirtualMemory page size: 4096 log2_page_size: 12

CPU 0 runs /datasets/cs240c-wi22-a00-public/data/Assignment2/omnetpp_17B.trace.xz
CPU 0 Bimodal branch predictor
Basic BTB sets: 1024 ways: 8 indirect buffer size: 4096 RAS size: 64
Initialize Hawkeye state
Heartbeat CPU 0 instructions: 10000002 cycles: 2500125 heartbeat IPC: 3.9998 cumulative IPC: 3.9998 (Simulation time: 0 hr 0 min 26 sec) 

Warmup complete CPU 0 instructions: 10000002 cycles: 2500125 (Simulation time: 0 hr 0 min 26 sec) 

Heartbeat CPU 0 instructions: 20000003 cycles: 8432074 heartbeat IPC: 1.68579 cumulative IPC: 1.68579 (Simulation time: 0 hr 0 min 57 sec) 
Heartbeat CPU 0 instructions: 30000000 cycles: 17708680 heartbeat IPC: 1.07798 cumulative IPC: 1.31505 (Simulation time: 0 hr 1 min 53 sec) 
Heartbeat CPU 0 instructions: 40000001 cycles: 27464786 heartbeat IPC: 1.025 cumulative IPC: 1.2017 (Simulation time: 0 hr 2 min 54 sec) 
Heartbeat CPU 0 instructions: 50000001 cycles: 34315687 heartbeat IPC: 1.45966 cumulative IPC: 1.25725 (Simulation time: 0 hr 3 min 33 sec) 
Heartbeat CPU 0 instructions: 60000001 cycles: 41698453 heartbeat IPC: 1.35451 cumulative IPC: 1.27556 (Simulation time: 0 hr 4 min 16 sec) 
Heartbeat CPU 0 instructions: 70000000 cycles: 51104374 heartbeat IPC: 1.06316 cumulative IPC: 1.23446 (Simulation time: 0 hr 5 min 14 sec) 
Heartbeat CPU 0 instructions: 80000002 cycles: 60561251 heartbeat IPC: 1.05743 cumulative IPC: 1.20563 (Simulation time: 0 hr 6 min 11 sec) 
Heartbeat CPU 0 instructions: 90000003 cycles: 69940998 heartbeat IPC: 1.06613 cumulative IPC: 1.18622 (Simulation time: 0 hr 7 min 8 sec) 
Heartbeat CPU 0 instructions: 100000002 cycles: 75285253 heartbeat IPC: 1.87117 cumulative IPC: 1.23652 (Simulation time: 0 hr 7 min 36 sec) 
Heartbeat CPU 0 instructions: 110000001 cycles: 84546349 heartbeat IPC: 1.07979 cumulative IPC: 1.21883 (Simulation time: 0 hr 8 min 32 sec) 
Finished CPU 0 instructions: 100000004 cycles: 82046231 cumulative IPC: 1.21882 (Simulation time: 0 hr 8 min 32 sec) 

ChampSim completed all CPUs

Region of Interest Statistics

CPU 0 cumulative IPC: 1.21882 instructions: 100000004 cycles: 82046231
cpu0_DTLB TOTAL     ACCESS:   10198857  HIT:    9134055  MISS:    1064802
cpu0_DTLB LOAD      ACCESS:    8261406  HIT:    7198484  MISS:    1062922
cpu0_DTLB RFO       ACCESS:    1937451  HIT:    1935571  MISS:       1880
cpu0_DTLB PREFETCH  ACCESS:          0  HIT:          0  MISS:          0
cpu0_DTLB WRITEBACK ACCESS:          0  HIT:          0  MISS:          0
cpu0_DTLB TRANSLATION ACCESS:          0  HIT:          0  MISS:          0
cpu0_DTLB PREFETCH  REQUESTED:          0  ISSUED:          0  USEFUL:          0  USELESS:          0
cpu0_DTLB AVERAGE MISS LATENCY: 21.1523 cycles
cpu0_ITLB TOTAL     ACCESS:    8332671  HIT:    8330614  MISS:       2057
cpu0_ITLB LOAD      ACCESS:    8332671  HIT:    8330614  MISS:       2057
cpu0_ITLB RFO       ACCESS:          0  HIT:          0  MISS:          0
cpu0_ITLB PREFETCH  ACCESS:          0  HIT:          0  MISS:          0
cpu0_ITLB WRITEBACK ACCESS:          0  HIT:          0  MISS:          0
cpu0_ITLB TRANSLATION ACCESS:          0  HIT:          0  MISS:          0
cpu0_ITLB PREFETCH  REQUESTED:          0  ISSUED:          0  USEFUL:          0  USELESS:          0
cpu0_ITLB AVERAGE MISS LATENCY: 15.6315 cycles
cpu0_L1I TOTAL     ACCESS:    1054828  HIT:    1050498  MISS:       4330
cpu0_L1I LOAD      ACCESS:    1054828  HIT:    1050498  MISS:       4330
cpu0_L1I RFO       ACCESS:          0  HIT:          0  MISS:          0
cpu0_L1I PREFETCH  ACCESS:          0  HIT:          0  MISS:          0
cpu0_L1I WRITEBACK ACCESS:          0  HIT:          0  MISS:          0
cpu0_L1I TRANSLATION ACCESS:          0  HIT:          0  MISS:          0
cpu0_L1I PREFETCH  REQUESTED:          0  ISSUED:          0  USEFUL:          0  USELESS:          0
cpu0_L1I AVERAGE MISS LATENCY: 92.6797 cycles
cpu0_STLB TOTAL     ACCESS:    1066859  HIT:      12744  MISS:    1054115
cpu0_STLB LOAD      ACCESS:    1064979  HIT:      11380  MISS:    1053599
cpu0_STLB RFO       ACCESS:       1880  HIT:       1364  MISS:        516
cpu0_STLB PREFETCH  ACCESS:          0  HIT:          0  MISS:          0
cpu0_STLB WRITEBACK ACCESS:          0  HIT:          0  MISS:          0
cpu0_STLB TRANSLATION ACCESS:          0  HIT:          0  MISS:          0
cpu0_STLB PREFETCH  REQUESTED:          0  ISSUED:          0  USEFUL:          0  USELESS:          0
cpu0_STLB AVERAGE MISS LATENCY: 11.8205 cycles
cpu0_L1D TOTAL     ACCESS:   10190679  HIT:    8436230  MISS:    1754449
cpu0_L1D LOAD      ACCESS:    6378760  HIT:    4638471  MISS:    1740289
cpu0_L1D RFO       ACCESS:    3337652  HIT:    3324594  MISS:      13058
cpu0_L1D PREFETCH  ACCESS:          0  HIT:          0  MISS:          0
cpu0_L1D WRITEBACK ACCESS:          0  HIT:          0  MISS:          0
cpu0_L1D TRANSLATION ACCESS:     474267  HIT:     473165  MISS:       1102
cpu0_L1D PREFETCH  REQUESTED:          0  ISSUED:          0  USEFUL:          0  USELESS:          0
cpu0_L1D AVERAGE MISS LATENCY: 203.957 cycles
cpu0_L2C TOTAL     ACCESS:    1775594  HIT:      23317  MISS:    1752277
cpu0_L2C LOAD      ACCESS:    1744619  HIT:       5922  MISS:    1738697
cpu0_L2C RFO       ACCESS:      13058  HIT:        137  MISS:      12921
cpu0_L2C PREFETCH  ACCESS:          0  HIT:          0  MISS:          0
cpu0_L2C WRITEBACK ACCESS:      16815  HIT:      16815  MISS:          0
cpu0_L2C TRANSLATION ACCESS:       1102  HIT:        443  MISS:        659
cpu0_L2C PREFETCH  REQUESTED:          0  ISSUED:          0  USEFUL:          0  USELESS:          0
cpu0_L2C AVERAGE MISS LATENCY: 192.863 cycles
LLC TOTAL     ACCESS:    1768988  HIT:    1061816  MISS:     707172
LLC LOAD      ACCESS:    1738697  HIT:    1050333  MISS:     688364
LLC RFO       ACCESS:      12921  HIT:       1736  MISS:      11185
LLC PREFETCH  ACCESS:          0  HIT:          0  MISS:          0
LLC WRITEBACK ACCESS:      16711  HIT:       9443  MISS:       7268
LLC TRANSLATION ACCESS:        659  HIT:        304  MISS:        355
LLC PREFETCH  REQUESTED:          0  ISSUED:          0  USEFUL:          0  USELESS:          0
LLC AVERAGE MISS LATENCY: 425.837 cycles
OPTgen accesses: 29542
OPTgen hits: 24322
OPTgen hit rate: 82.3302



DRAM Statistics
 CHANNEL 0
 RQ ROW_BUFFER_HIT:      14508  ROW_BUFFER_MISS:     685180
 DBUS AVG_CONGESTED_CYCLE:    3.97962
 WQ ROW_BUFFER_HIT:       1295  ROW_BUFFER_MISS:      11363  FULL:          0


CPU 0 Branch Prediction Accuracy: 97.6159% MPKI: 7.87238 Average ROB Occupancy at Mispredict: 63.3991
Branch type MPKI
BRANCH_DIRECT_JUMP: 0.00032
BRANCH_INDIRECT: 0.08474
BRANCH_CONDITIONAL: 7.75802
BRANCH_DIRECT_CALL: 0.00068
BRANCH_INDIRECT_CALL: 0.00292
BRANCH_RETURN: 0.0257

