
*** ChampSim Multicore Out-of-Order Simulator ***

Warmup Instructions: 10000000
Simulation Instructions: 100000000
Number of CPUs: 1
Off-chip DRAM Size: 4 GiB Channels: 1 Width: 64-bit Data Rate: 3200 MT/s

VirtualMemory physical capacity: 8588881920 num_ppages: 2096895
VirtualMemory page size: 4096 log2_page_size: 12

CPU 0 runs /datasets/cs240c-wi22-a00-public/data/Assignment2/soplex_217B.trace.xz
CPU 0 Bimodal branch predictor
Basic BTB sets: 1024 ways: 8 indirect buffer size: 4096 RAS size: 64
Initialize Hawkeye state
Heartbeat CPU 0 instructions: 10000000 cycles: 2844444 heartbeat IPC: 3.51563 cumulative IPC: 3.51563 (Simulation time: 0 hr 0 min 36 sec) 

Warmup complete CPU 0 instructions: 10000004 cycles: 2844445 (Simulation time: 0 hr 0 min 36 sec) 

Heartbeat CPU 0 instructions: 20000000 cycles: 34417725 heartbeat IPC: 0.316723 cumulative IPC: 0.316723 (Simulation time: 0 hr 2 min 22 sec) 
Heartbeat CPU 0 instructions: 30000004 cycles: 64524158 heartbeat IPC: 0.332155 cumulative IPC: 0.324256 (Simulation time: 0 hr 4 min 13 sec) 
Heartbeat CPU 0 instructions: 40000003 cycles: 96066978 heartbeat IPC: 0.317029 cumulative IPC: 0.321811 (Simulation time: 0 hr 5 min 57 sec) 
Heartbeat CPU 0 instructions: 50000000 cycles: 125065643 heartbeat IPC: 0.344843 cumulative IPC: 0.327275 (Simulation time: 0 hr 7 min 41 sec) 
Heartbeat CPU 0 instructions: 60000002 cycles: 156101146 heartbeat IPC: 0.322212 cumulative IPC: 0.32625 (Simulation time: 0 hr 9 min 31 sec) 
Heartbeat CPU 0 instructions: 70000000 cycles: 200504003 heartbeat IPC: 0.225211 cumulative IPC: 0.303552 (Simulation time: 0 hr 12 min 5 sec) 
Heartbeat CPU 0 instructions: 80000000 cycles: 233345408 heartbeat IPC: 0.304494 cumulative IPC: 0.303686 (Simulation time: 0 hr 13 min 44 sec) 
Heartbeat CPU 0 instructions: 90000002 cycles: 263153785 heartbeat IPC: 0.335476 cumulative IPC: 0.307327 (Simulation time: 0 hr 15 min 33 sec) 
Heartbeat CPU 0 instructions: 100000004 cycles: 295109846 heartbeat IPC: 0.31293 cumulative IPC: 0.307939 (Simulation time: 0 hr 17 min 26 sec) 
Heartbeat CPU 0 instructions: 110000000 cycles: 323883424 heartbeat IPC: 0.347541 cumulative IPC: 0.311489 (Simulation time: 0 hr 18 min 55 sec) 
Finished CPU 0 instructions: 100000000 cycles: 321038981 cumulative IPC: 0.311489 (Simulation time: 0 hr 18 min 55 sec) 

ChampSim completed all CPUs

Region of Interest Statistics

CPU 0 cumulative IPC: 0.311489 instructions: 100000000 cycles: 321038981
cpu0_DTLB TOTAL     ACCESS:   21866120  HIT:   21000260  MISS:     865860
cpu0_DTLB LOAD      ACCESS:   16700551  HIT:   16016876  MISS:     683675
cpu0_DTLB RFO       ACCESS:    5165569  HIT:    4983384  MISS:     182185
cpu0_DTLB PREFETCH  ACCESS:          0  HIT:          0  MISS:          0
cpu0_DTLB WRITEBACK ACCESS:          0  HIT:          0  MISS:          0
cpu0_DTLB TRANSLATION ACCESS:          0  HIT:          0  MISS:          0
cpu0_DTLB PREFETCH  REQUESTED:          0  ISSUED:          0  USEFUL:          0  USELESS:          0
cpu0_DTLB AVERAGE MISS LATENCY: 15.4221 cycles
cpu0_ITLB TOTAL     ACCESS:    8503871  HIT:    8503853  MISS:         18
cpu0_ITLB LOAD      ACCESS:    8503871  HIT:    8503853  MISS:         18
cpu0_ITLB RFO       ACCESS:          0  HIT:          0  MISS:          0
cpu0_ITLB PREFETCH  ACCESS:          0  HIT:          0  MISS:          0
cpu0_ITLB WRITEBACK ACCESS:          0  HIT:          0  MISS:          0
cpu0_ITLB TRANSLATION ACCESS:          0  HIT:          0  MISS:          0
cpu0_ITLB PREFETCH  REQUESTED:          0  ISSUED:          0  USEFUL:          0  USELESS:          0
cpu0_ITLB AVERAGE MISS LATENCY: 434.333 cycles
cpu0_L1I TOTAL     ACCESS:     350706  HIT:     350053  MISS:        653
cpu0_L1I LOAD      ACCESS:     350706  HIT:     350053  MISS:        653
cpu0_L1I RFO       ACCESS:          0  HIT:          0  MISS:          0
cpu0_L1I PREFETCH  ACCESS:          0  HIT:          0  MISS:          0
cpu0_L1I WRITEBACK ACCESS:          0  HIT:          0  MISS:          0
cpu0_L1I TRANSLATION ACCESS:          0  HIT:          0  MISS:          0
cpu0_L1I PREFETCH  REQUESTED:          0  ISSUED:          0  USEFUL:          0  USELESS:          0
cpu0_L1I AVERAGE MISS LATENCY: 309.799 cycles
cpu0_STLB TOTAL     ACCESS:     865878  HIT:     742364  MISS:     123514
cpu0_STLB LOAD      ACCESS:     683693  HIT:     569530  MISS:     114163
cpu0_STLB RFO       ACCESS:     182185  HIT:     172834  MISS:       9351
cpu0_STLB PREFETCH  ACCESS:          0  HIT:          0  MISS:          0
cpu0_STLB WRITEBACK ACCESS:          0  HIT:          0  MISS:          0
cpu0_STLB TRANSLATION ACCESS:          0  HIT:          0  MISS:          0
cpu0_STLB PREFETCH  REQUESTED:          0  ISSUED:          0  USEFUL:          0  USELESS:          0
cpu0_STLB AVERAGE MISS LATENCY: 43.9072 cycles
cpu0_L1D TOTAL     ACCESS:   18136082  HIT:   12312094  MISS:    5823988
cpu0_L1D LOAD      ACCESS:   12240086  HIT:    7245763  MISS:    4994323
cpu0_L1D RFO       ACCESS:    5776098  HIT:    4951459  MISS:     824639
cpu0_L1D PREFETCH  ACCESS:          0  HIT:          0  MISS:          0
cpu0_L1D WRITEBACK ACCESS:          0  HIT:          0  MISS:          0
cpu0_L1D TRANSLATION ACCESS:     119898  HIT:     114872  MISS:       5026
cpu0_L1D PREFETCH  REQUESTED:          0  ISSUED:          0  USEFUL:          0  USELESS:          0
cpu0_L1D AVERAGE MISS LATENCY: 203.961 cycles
cpu0_L2C TOTAL     ACCESS:    8411808  HIT:    3954493  MISS:    4457315
cpu0_L2C LOAD      ACCESS:    4994411  HIT:    1232060  MISS:    3762351
cpu0_L2C RFO       ACCESS:     824572  HIT:     130462  MISS:     694110
cpu0_L2C PREFETCH  ACCESS:          0  HIT:          0  MISS:          0
cpu0_L2C WRITEBACK ACCESS:    2587799  HIT:    2587697  MISS:        102
cpu0_L2C TRANSLATION ACCESS:       5026  HIT:       4274  MISS:        752
cpu0_L2C PREFETCH  REQUESTED:          0  ISSUED:          0  USEFUL:          0  USELESS:          0
cpu0_L2C AVERAGE MISS LATENCY: 251.933 cycles
LLC TOTAL     ACCESS:    6308231  HIT:    3237933  MISS:    3070298
LLC LOAD      ACCESS:    3762332  HIT:    1491537  MISS:    2270795
LLC RFO       ACCESS:     694108  HIT:     234891  MISS:     459217
LLC PREFETCH  ACCESS:          0  HIT:          0  MISS:          0
LLC WRITEBACK ACCESS:    1851039  HIT:    1511152  MISS:     339887
LLC TRANSLATION ACCESS:        752  HIT:        353  MISS:        399
LLC PREFETCH  REQUESTED:          0  ISSUED:          0  USEFUL:          0  USELESS:          0
LLC AVERAGE MISS LATENCY: 335.131 cycles
OPTgen accesses: 77553
OPTgen hits: 38242
OPTgen hit rate: 49.3108



DRAM Statistics
 CHANNEL 0
 RQ ROW_BUFFER_HIT:     280799  ROW_BUFFER_MISS:    2446516
 DBUS AVG_CONGESTED_CYCLE:    3.95153
 WQ ROW_BUFFER_HIT:      41144  ROW_BUFFER_MISS:     931930  FULL:     201333


CPU 0 Branch Prediction Accuracy: 93.2069% MPKI: 14.28 Average ROB Occupancy at Mispredict: 49.284
Branch type MPKI
BRANCH_DIRECT_JUMP: 0.00099
BRANCH_INDIRECT: 0.00023
BRANCH_CONDITIONAL: 14.2767
BRANCH_DIRECT_CALL: 0.00062
BRANCH_INDIRECT_CALL: 0.00054
BRANCH_RETURN: 0.00093

