
*** ChampSim Multicore Out-of-Order Simulator ***

Warmup Instructions: 10000000
Simulation Instructions: 100000000
Number of CPUs: 1
Off-chip DRAM Size: 4 GiB Channels: 1 Width: 64-bit Data Rate: 3200 MT/s

VirtualMemory physical capacity: 8588881920 num_ppages: 2096895
VirtualMemory page size: 4096 log2_page_size: 12

CPU 0 runs /datasets/cs240c-wi22-a00-public/data/Assignment2/zeusmp_300B.trace.xz
CPU 0 Bimodal branch predictor
Basic BTB sets: 1024 ways: 8 indirect buffer size: 4096 RAS size: 64
Initialize Hawkeye state
Heartbeat CPU 0 instructions: 10000000 cycles: 2814860 heartbeat IPC: 3.55257 cumulative IPC: 3.55257 (Simulation time: 0 hr 0 min 34 sec) 

Warmup complete CPU 0 instructions: 10000002 cycles: 2814863 (Simulation time: 0 hr 0 min 34 sec) 

Heartbeat CPU 0 instructions: 20000004 cycles: 8428388 heartbeat IPC: 1.78141 cumulative IPC: 1.78141 (Simulation time: 0 hr 1 min 27 sec) 
Heartbeat CPU 0 instructions: 30000004 cycles: 14056924 heartbeat IPC: 1.77666 cumulative IPC: 1.77903 (Simulation time: 0 hr 2 min 19 sec) 
Heartbeat CPU 0 instructions: 40000003 cycles: 19673609 heartbeat IPC: 1.78041 cumulative IPC: 1.77949 (Simulation time: 0 hr 3 min 12 sec) 
Heartbeat CPU 0 instructions: 50000004 cycles: 25335016 heartbeat IPC: 1.76635 cumulative IPC: 1.77619 (Simulation time: 0 hr 4 min 4 sec) 
Heartbeat CPU 0 instructions: 60000001 cycles: 30985285 heartbeat IPC: 1.76983 cumulative IPC: 1.77491 (Simulation time: 0 hr 4 min 54 sec) 
Heartbeat CPU 0 instructions: 70000000 cycles: 36587451 heartbeat IPC: 1.78502 cumulative IPC: 1.77659 (Simulation time: 0 hr 5 min 44 sec) 
Heartbeat CPU 0 instructions: 80000000 cycles: 42199273 heartbeat IPC: 1.78195 cumulative IPC: 1.77735 (Simulation time: 0 hr 6 min 34 sec) 
Heartbeat CPU 0 instructions: 90000003 cycles: 47919294 heartbeat IPC: 1.74825 cumulative IPC: 1.77366 (Simulation time: 0 hr 7 min 25 sec) 
Heartbeat CPU 0 instructions: 100000000 cycles: 53528078 heartbeat IPC: 1.78292 cumulative IPC: 1.77469 (Simulation time: 0 hr 8 min 14 sec) 
Heartbeat CPU 0 instructions: 110000004 cycles: 59092712 heartbeat IPC: 1.79706 cumulative IPC: 1.7769 (Simulation time: 0 hr 9 min 3 sec) 
Finished CPU 0 instructions: 100000002 cycles: 56277849 cumulative IPC: 1.7769 (Simulation time: 0 hr 9 min 3 sec) 

ChampSim completed all CPUs

Region of Interest Statistics

CPU 0 cumulative IPC: 1.7769 instructions: 100000002 cycles: 56277849
cpu0_DTLB TOTAL     ACCESS:   16101593  HIT:   15018508  MISS:    1083085
cpu0_DTLB LOAD      ACCESS:   10874780  HIT:    9809455  MISS:    1065325
cpu0_DTLB RFO       ACCESS:    5226813  HIT:    5209053  MISS:      17760
cpu0_DTLB PREFETCH  ACCESS:          0  HIT:          0  MISS:          0
cpu0_DTLB WRITEBACK ACCESS:          0  HIT:          0  MISS:          0
cpu0_DTLB TRANSLATION ACCESS:          0  HIT:          0  MISS:          0
cpu0_DTLB PREFETCH  REQUESTED:          0  ISSUED:          0  USEFUL:          0  USELESS:          0
cpu0_DTLB AVERAGE MISS LATENCY: 10.5108 cycles
cpu0_ITLB TOTAL     ACCESS:    1803677  HIT:    1803677  MISS:          0
cpu0_ITLB LOAD      ACCESS:    1803677  HIT:    1803677  MISS:          0
cpu0_ITLB RFO       ACCESS:          0  HIT:          0  MISS:          0
cpu0_ITLB PREFETCH  ACCESS:          0  HIT:          0  MISS:          0
cpu0_ITLB WRITEBACK ACCESS:          0  HIT:          0  MISS:          0
cpu0_ITLB TRANSLATION ACCESS:          0  HIT:          0  MISS:          0
cpu0_ITLB PREFETCH  REQUESTED:          0  ISSUED:          0  USEFUL:          0  USELESS:          0
cpu0_ITLB AVERAGE MISS LATENCY: -nan cycles
cpu0_L1I TOTAL     ACCESS:    2749620  HIT:    2749620  MISS:          0
cpu0_L1I LOAD      ACCESS:    2749620  HIT:    2749620  MISS:          0
cpu0_L1I RFO       ACCESS:          0  HIT:          0  MISS:          0
cpu0_L1I PREFETCH  ACCESS:          0  HIT:          0  MISS:          0
cpu0_L1I WRITEBACK ACCESS:          0  HIT:          0  MISS:          0
cpu0_L1I TRANSLATION ACCESS:          0  HIT:          0  MISS:          0
cpu0_L1I PREFETCH  REQUESTED:          0  ISSUED:          0  USEFUL:          0  USELESS:          0
cpu0_L1I AVERAGE MISS LATENCY: -nan cycles
cpu0_STLB TOTAL     ACCESS:    1083085  HIT:    1076133  MISS:       6952
cpu0_STLB LOAD      ACCESS:    1065325  HIT:    1060426  MISS:       4899
cpu0_STLB RFO       ACCESS:      17760  HIT:      15707  MISS:       2053
cpu0_STLB PREFETCH  ACCESS:          0  HIT:          0  MISS:          0
cpu0_STLB WRITEBACK ACCESS:          0  HIT:          0  MISS:          0
cpu0_STLB TRANSLATION ACCESS:          0  HIT:          0  MISS:          0
cpu0_STLB PREFETCH  REQUESTED:          0  ISSUED:          0  USEFUL:          0  USELESS:          0
cpu0_STLB AVERAGE MISS LATENCY: 210.548 cycles
cpu0_L1D TOTAL     ACCESS:   18597944  HIT:   17937146  MISS:     660798
cpu0_L1D LOAD      ACCESS:   10915506  HIT:   10434762  MISS:     480744
cpu0_L1D RFO       ACCESS:    7675798  HIT:    7500379  MISS:     175419
cpu0_L1D PREFETCH  ACCESS:          0  HIT:          0  MISS:          0
cpu0_L1D WRITEBACK ACCESS:          0  HIT:          0  MISS:          0
cpu0_L1D TRANSLATION ACCESS:       6640  HIT:       2005  MISS:       4635
cpu0_L1D PREFETCH  REQUESTED:          0  ISSUED:          0  USEFUL:          0  USELESS:          0
cpu0_L1D AVERAGE MISS LATENCY: 137.454 cycles
cpu0_L2C TOTAL     ACCESS:     838872  HIT:     409948  MISS:     428924
cpu0_L2C LOAD      ACCESS:     480716  HIT:     197420  MISS:     283296
cpu0_L2C RFO       ACCESS:     175372  HIT:      34909  MISS:     140463
cpu0_L2C PREFETCH  ACCESS:          0  HIT:          0  MISS:          0
cpu0_L2C WRITEBACK ACCESS:     178149  HIT:     173218  MISS:       4931
cpu0_L2C TRANSLATION ACCESS:       4635  HIT:       4401  MISS:        234
cpu0_L2C PREFETCH  REQUESTED:          0  ISSUED:          0  USEFUL:          0  USELESS:          0
cpu0_L2C AVERAGE MISS LATENCY: 194.799 cycles
LLC TOTAL     ACCESS:     580543  HIT:     245009  MISS:     335534
LLC LOAD      ACCESS:     283296  HIT:      92851  MISS:     190445
LLC RFO       ACCESS:     140463  HIT:      63505  MISS:      76958
LLC PREFETCH  ACCESS:          0  HIT:          0  MISS:          0
LLC WRITEBACK ACCESS:     156550  HIT:      88567  MISS:      67983
LLC TRANSLATION ACCESS:        234  HIT:         86  MISS:        148
LLC PREFETCH  REQUESTED:          0  ISSUED:          0  USEFUL:          0  USELESS:          0
LLC AVERAGE MISS LATENCY: 222.481 cycles
OPTgen accesses: 7361
OPTgen hits: 2816
OPTgen hit rate: 38.2557



DRAM Statistics
 CHANNEL 0
 RQ ROW_BUFFER_HIT:      18557  ROW_BUFFER_MISS:     248991
 DBUS AVG_CONGESTED_CYCLE:    3.99874
 WQ ROW_BUFFER_HIT:       5389  ROW_BUFFER_MISS:      77430  FULL:          0


CPU 0 Branch Prediction Accuracy: 98.8423% MPKI: 0.45019 Average ROB Occupancy at Mispredict: 205.61
Branch type MPKI
BRANCH_DIRECT_JUMP: 0
BRANCH_INDIRECT: 0
BRANCH_CONDITIONAL: 0.45019
BRANCH_DIRECT_CALL: 0
BRANCH_INDIRECT_CALL: 0
BRANCH_RETURN: 0

