
*** ChampSim Multicore Out-of-Order Simulator ***

Warmup Instructions: 10000000
Simulation Instructions: 100000000
Number of CPUs: 1
Off-chip DRAM Size: 4 GiB Channels: 1 Width: 64-bit Data Rate: 3200 MT/s

VirtualMemory physical capacity: 8588881920 num_ppages: 2096895
VirtualMemory page size: 4096 log2_page_size: 12

CPU 0 runs /Users/brandon/Documents/CoursesWi22/CSE240C/Homework2/traces/bzip2_259B.trace.xz
CPU 0 Bimodal branch predictor
Basic BTB sets: 1024 ways: 8 indirect buffer size: 4096 RAS size: 64
Initialize SRRIP state
Heartbeat CPU 0 instructions: 10000002 cycles: 2535454 heartbeat IPC: 3.94407 cumulative IPC: 3.94407 (Simulation time: 0 hr 0 min 41 sec) 

Warmup complete CPU 0 instructions: 10000002 cycles: 2535454 (Simulation time: 0 hr 0 min 41 sec) 

Heartbeat CPU 0 instructions: 20000004 cycles: 9013510 heartbeat IPC: 1.54367 cumulative IPC: 1.54367 (Simulation time: 0 hr 2 min 29 sec) 
Heartbeat CPU 0 instructions: 30000002 cycles: 14447377 heartbeat IPC: 1.84031 cumulative IPC: 1.67899 (Simulation time: 0 hr 3 min 53 sec) 
Heartbeat CPU 0 instructions: 40000003 cycles: 21128000 heartbeat IPC: 1.49687 cumulative IPC: 1.61355 (Simulation time: 0 hr 4 min 53 sec) 
Heartbeat CPU 0 instructions: 50000003 cycles: 29335968 heartbeat IPC: 1.21833 cumulative IPC: 1.49251 (Simulation time: 0 hr 5 min 23 sec) 
Heartbeat CPU 0 instructions: 60000001 cycles: 37205361 heartbeat IPC: 1.27075 cumulative IPC: 1.44217 (Simulation time: 0 hr 5 min 55 sec) 
Heartbeat CPU 0 instructions: 70000003 cycles: 43564089 heartbeat IPC: 1.57264 cumulative IPC: 1.46239 (Simulation time: 0 hr 7 min 39 sec) 
Heartbeat CPU 0 instructions: 80000002 cycles: 50076344 heartbeat IPC: 1.53557 cumulative IPC: 1.47242 (Simulation time: 0 hr 9 min 22 sec) 
Heartbeat CPU 0 instructions: 90000001 cycles: 56287007 heartbeat IPC: 1.61013 cumulative IPC: 1.48833 (Simulation time: 0 hr 10 min 31 sec) 
Heartbeat CPU 0 instructions: 100000000 cycles: 64691039 heartbeat IPC: 1.1899 cumulative IPC: 1.44798 (Simulation time: 0 hr 11 min 1 sec) 
Heartbeat CPU 0 instructions: 110000000 cycles: 72670622 heartbeat IPC: 1.2532 cumulative IPC: 1.42582 (Simulation time: 0 hr 11 min 31 sec) 
Finished CPU 0 instructions: 100000003 cycles: 70135173 cumulative IPC: 1.42582 (Simulation time: 0 hr 11 min 31 sec) 

ChampSim completed all CPUs

Region of Interest Statistics

CPU 0 cumulative IPC: 1.42582 instructions: 100000003 cycles: 70135173
cpu0_DTLB TOTAL     ACCESS:   18624346  HIT:   17962793  MISS:     661553
cpu0_DTLB LOAD      ACCESS:    9570780  HIT:    8913133  MISS:     657647
cpu0_DTLB RFO       ACCESS:    9053566  HIT:    9049660  MISS:       3906
cpu0_DTLB PREFETCH  ACCESS:          0  HIT:          0  MISS:          0
cpu0_DTLB WRITEBACK ACCESS:          0  HIT:          0  MISS:          0
cpu0_DTLB TRANSLATION ACCESS:          0  HIT:          0  MISS:          0
cpu0_DTLB PREFETCH  REQUESTED:          0  ISSUED:          0  USEFUL:          0  USELESS:          0
cpu0_DTLB AVERAGE MISS LATENCY: 9.26288 cycles
cpu0_ITLB TOTAL     ACCESS:    6754821  HIT:    6754818  MISS:          3
cpu0_ITLB LOAD      ACCESS:    6754821  HIT:    6754818  MISS:          3
cpu0_ITLB RFO       ACCESS:          0  HIT:          0  MISS:          0
cpu0_ITLB PREFETCH  ACCESS:          0  HIT:          0  MISS:          0
cpu0_ITLB WRITEBACK ACCESS:          0  HIT:          0  MISS:          0
cpu0_ITLB TRANSLATION ACCESS:          0  HIT:          0  MISS:          0
cpu0_ITLB PREFETCH  REQUESTED:          0  ISSUED:          0  USEFUL:          0  USELESS:          0
cpu0_ITLB AVERAGE MISS LATENCY: 242 cycles
cpu0_L1I TOTAL     ACCESS:      58741  HIT:      58602  MISS:        139
cpu0_L1I LOAD      ACCESS:      58741  HIT:      58602  MISS:        139
cpu0_L1I RFO       ACCESS:          0  HIT:          0  MISS:          0
cpu0_L1I PREFETCH  ACCESS:          0  HIT:          0  MISS:          0
cpu0_L1I WRITEBACK ACCESS:          0  HIT:          0  MISS:          0
cpu0_L1I TRANSLATION ACCESS:          0  HIT:          0  MISS:          0
cpu0_L1I PREFETCH  REQUESTED:          0  ISSUED:          0  USEFUL:          0  USELESS:          0
cpu0_L1I AVERAGE MISS LATENCY: 205.302 cycles
cpu0_STLB TOTAL     ACCESS:     661556  HIT:     660736  MISS:        820
cpu0_STLB LOAD      ACCESS:     657650  HIT:     657375  MISS:        275
cpu0_STLB RFO       ACCESS:       3906  HIT:       3361  MISS:        545
cpu0_STLB PREFETCH  ACCESS:          0  HIT:          0  MISS:          0
cpu0_STLB WRITEBACK ACCESS:          0  HIT:          0  MISS:          0
cpu0_STLB TRANSLATION ACCESS:          0  HIT:          0  MISS:          0
cpu0_STLB PREFETCH  REQUESTED:          0  ISSUED:          0  USEFUL:          0  USELESS:          0
cpu0_STLB AVERAGE MISS LATENCY: 212.868 cycles
cpu0_L1D TOTAL     ACCESS:   20322089  HIT:   19316520  MISS:    1005569
cpu0_L1D LOAD      ACCESS:   10366834  HIT:    9480455  MISS:     886379
cpu0_L1D RFO       ACCESS:    9954439  HIT:    9835568  MISS:     118871
cpu0_L1D PREFETCH  ACCESS:          0  HIT:          0  MISS:          0
cpu0_L1D WRITEBACK ACCESS:          0  HIT:          0  MISS:          0
cpu0_L1D TRANSLATION ACCESS:        816  HIT:        497  MISS:        319
cpu0_L1D PREFETCH  REQUESTED:          0  ISSUED:          0  USEFUL:          0  USELESS:          0
cpu0_L1D AVERAGE MISS LATENCY: 85.2125 cycles
cpu0_L2C TOTAL     ACCESS:    1222697  HIT:     525787  MISS:     696910
cpu0_L2C LOAD      ACCESS:     886515  HIT:     289609  MISS:     596906
cpu0_L2C RFO       ACCESS:     118871  HIT:      18921  MISS:      99950
cpu0_L2C PREFETCH  ACCESS:          0  HIT:          0  MISS:          0
cpu0_L2C WRITEBACK ACCESS:     216992  HIT:     216954  MISS:         38
cpu0_L2C TRANSLATION ACCESS:        319  HIT:        303  MISS:         16
cpu0_L2C PREFETCH  REQUESTED:          0  ISSUED:          0  USEFUL:          0  USELESS:          0
cpu0_L2C AVERAGE MISS LATENCY: 107.115 cycles
LLC TOTAL     ACCESS:     885926  HIT:     603420  MISS:     282506
LLC LOAD      ACCESS:     596906  HIT:     416221  MISS:     180685
LLC RFO       ACCESS:      99947  HIT:      37419  MISS:      62528
LLC PREFETCH  ACCESS:          0  HIT:          0  MISS:          0
LLC WRITEBACK ACCESS:     189057  HIT:     149777  MISS:      39280
LLC TRANSLATION ACCESS:         16  HIT:          3  MISS:         13
LLC PREFETCH  REQUESTED:          0  ISSUED:          0  USEFUL:          0  USELESS:          0
LLC AVERAGE MISS LATENCY: 212.435 cycles
Insertion Distribution: 
	LOAD 44885 0 61628 74754 
	RFO 12994 0 26140 39350 
	PREF 0 0 0 0 
	WRITEBACK 0 0 0 39280 
	 0 0 12 12 
Total Prefetch Downgrades: 0

DRAM Statistics
 CHANNEL 0
 RQ ROW_BUFFER_HIT:      36024  ROW_BUFFER_MISS:     207048
 DBUS AVG_CONGESTED_CYCLE:    3.95275
 WQ ROW_BUFFER_HIT:      14820  ROW_BUFFER_MISS:     107683  FULL:       3483


CPU 0 Branch Prediction Accuracy: 93.3658% MPKI: 11.2167 Average ROB Occupancy at Mispredict: 31.7585
Branch type MPKI
BRANCH_DIRECT_JUMP: 0.0006
BRANCH_INDIRECT: 0.01713
BRANCH_CONDITIONAL: 11.1989
BRANCH_DIRECT_CALL: 5e-05
BRANCH_INDIRECT_CALL: 0
BRANCH_RETURN: 6e-05

