
*** ChampSim Multicore Out-of-Order Simulator ***

Warmup Instructions: 10000000
Simulation Instructions: 100000000
Number of CPUs: 1
Off-chip DRAM Size: 4 GiB Channels: 1 Width: 64-bit Data Rate: 3200 MT/s

VirtualMemory physical capacity: 8588881920 num_ppages: 2096895
VirtualMemory page size: 4096 log2_page_size: 12

CPU 0 runs /Users/brandon/Documents/CoursesWi22/CSE240C/Homework2/traces/gobmk_76B.trace.xz
CPU 0 Bimodal branch predictor
Basic BTB sets: 1024 ways: 8 indirect buffer size: 4096 RAS size: 64
Initialize SRRIP state
Heartbeat CPU 0 instructions: 10000000 cycles: 2570335 heartbeat IPC: 3.89054 cumulative IPC: 3.89054 (Simulation time: 0 hr 0 min 45 sec) 

Warmup complete CPU 0 instructions: 10000004 cycles: 2570336 (Simulation time: 0 hr 0 min 45 sec) 

Heartbeat CPU 0 instructions: 20000001 cycles: 13769521 heartbeat IPC: 0.892922 cumulative IPC: 0.892922 (Simulation time: 0 hr 1 min 25 sec) 
Heartbeat CPU 0 instructions: 30000002 cycles: 24937498 heartbeat IPC: 0.895417 cumulative IPC: 0.894168 (Simulation time: 0 hr 2 min 5 sec) 
Heartbeat CPU 0 instructions: 40000000 cycles: 36193004 heartbeat IPC: 0.888454 cumulative IPC: 0.892255 (Simulation time: 0 hr 2 min 47 sec) 
Heartbeat CPU 0 instructions: 50000002 cycles: 47958086 heartbeat IPC: 0.849973 cumulative IPC: 0.881295 (Simulation time: 0 hr 3 min 26 sec) 
Heartbeat CPU 0 instructions: 60000002 cycles: 59601442 heartbeat IPC: 0.858859 cumulative IPC: 0.876715 (Simulation time: 0 hr 4 min 8 sec) 
Heartbeat CPU 0 instructions: 70000000 cycles: 71120840 heartbeat IPC: 0.868101 cumulative IPC: 0.875267 (Simulation time: 0 hr 4 min 50 sec) 
Heartbeat CPU 0 instructions: 80000003 cycles: 82551550 heartbeat IPC: 0.874837 cumulative IPC: 0.875206 (Simulation time: 0 hr 5 min 31 sec) 
Heartbeat CPU 0 instructions: 90000003 cycles: 94002130 heartbeat IPC: 0.873318 cumulative IPC: 0.874969 (Simulation time: 0 hr 6 min 14 sec) 
Heartbeat CPU 0 instructions: 100000002 cycles: 105434294 heartbeat IPC: 0.874725 cumulative IPC: 0.874942 (Simulation time: 0 hr 6 min 53 sec) 
Heartbeat CPU 0 instructions: 110000003 cycles: 116880489 heartbeat IPC: 0.873653 cumulative IPC: 0.874813 (Simulation time: 0 hr 7 min 33 sec) 
Finished CPU 0 instructions: 100000004 cycles: 114310154 cumulative IPC: 0.874813 (Simulation time: 0 hr 7 min 33 sec) 

ChampSim completed all CPUs

Region of Interest Statistics

CPU 0 cumulative IPC: 0.874813 instructions: 100000004 cycles: 114310154
cpu0_DTLB TOTAL     ACCESS:   21237534  HIT:   21096154  MISS:     141380
cpu0_DTLB LOAD      ACCESS:   15103858  HIT:   14977104  MISS:     126754
cpu0_DTLB RFO       ACCESS:    6133676  HIT:    6119050  MISS:      14626
cpu0_DTLB PREFETCH  ACCESS:          0  HIT:          0  MISS:          0
cpu0_DTLB WRITEBACK ACCESS:          0  HIT:          0  MISS:          0
cpu0_DTLB TRANSLATION ACCESS:          0  HIT:          0  MISS:          0
cpu0_DTLB PREFETCH  REQUESTED:          0  ISSUED:          0  USEFUL:          0  USELESS:          0
cpu0_DTLB AVERAGE MISS LATENCY: 10.7349 cycles
cpu0_ITLB TOTAL     ACCESS:    9135478  HIT:    9131800  MISS:       3678
cpu0_ITLB LOAD      ACCESS:    9135478  HIT:    9131800  MISS:       3678
cpu0_ITLB RFO       ACCESS:          0  HIT:          0  MISS:          0
cpu0_ITLB PREFETCH  ACCESS:          0  HIT:          0  MISS:          0
cpu0_ITLB WRITEBACK ACCESS:          0  HIT:          0  MISS:          0
cpu0_ITLB TRANSLATION ACCESS:          0  HIT:          0  MISS:          0
cpu0_ITLB PREFETCH  REQUESTED:          0  ISSUED:          0  USEFUL:          0  USELESS:          0
cpu0_ITLB AVERAGE MISS LATENCY: 9.42713 cycles
cpu0_L1I TOTAL     ACCESS:    7148810  HIT:    6835943  MISS:     312867
cpu0_L1I LOAD      ACCESS:    7148810  HIT:    6835943  MISS:     312867
cpu0_L1I RFO       ACCESS:          0  HIT:          0  MISS:          0
cpu0_L1I PREFETCH  ACCESS:          0  HIT:          0  MISS:          0
cpu0_L1I WRITEBACK ACCESS:          0  HIT:          0  MISS:          0
cpu0_L1I TRANSLATION ACCESS:          0  HIT:          0  MISS:          0
cpu0_L1I PREFETCH  REQUESTED:          0  ISSUED:          0  USEFUL:          0  USELESS:          0
cpu0_L1I AVERAGE MISS LATENCY: 12.6912 cycles
cpu0_STLB TOTAL     ACCESS:     145058  HIT:     142416  MISS:       2642
cpu0_STLB LOAD      ACCESS:     130432  HIT:     127961  MISS:       2471
cpu0_STLB RFO       ACCESS:      14626  HIT:      14455  MISS:        171
cpu0_STLB PREFETCH  ACCESS:          0  HIT:          0  MISS:          0
cpu0_STLB WRITEBACK ACCESS:          0  HIT:          0  MISS:          0
cpu0_STLB TRANSLATION ACCESS:          0  HIT:          0  MISS:          0
cpu0_STLB PREFETCH  REQUESTED:          0  ISSUED:          0  USEFUL:          0  USELESS:          0
cpu0_STLB AVERAGE MISS LATENCY: 93.2506 cycles
cpu0_L1D TOTAL     ACCESS:   25317452  HIT:   24707940  MISS:     609512
cpu0_L1D LOAD      ACCESS:   14878705  HIT:   14454058  MISS:     424647
cpu0_L1D RFO       ACCESS:   10436109  HIT:   10251773  MISS:     184336
cpu0_L1D PREFETCH  ACCESS:          0  HIT:          0  MISS:          0
cpu0_L1D WRITEBACK ACCESS:          0  HIT:          0  MISS:          0
cpu0_L1D TRANSLATION ACCESS:       2638  HIT:       2109  MISS:        529
cpu0_L1D PREFETCH  REQUESTED:          0  ISSUED:          0  USEFUL:          0  USELESS:          0
cpu0_L1D AVERAGE MISS LATENCY: 24.2916 cycles
cpu0_L2C TOTAL     ACCESS:    1188008  HIT:     976652  MISS:     211356
cpu0_L2C LOAD      ACCESS:     737511  HIT:     575309  MISS:     162202
cpu0_L2C RFO       ACCESS:     184335  HIT:     135427  MISS:      48908
cpu0_L2C PREFETCH  ACCESS:          0  HIT:          0  MISS:          0
cpu0_L2C WRITEBACK ACCESS:     265633  HIT:     265559  MISS:         74
cpu0_L2C TRANSLATION ACCESS:        529  HIT:        357  MISS:        172
cpu0_L2C PREFETCH  REQUESTED:          0  ISSUED:          0  USEFUL:          0  USELESS:          0
cpu0_L2C AVERAGE MISS LATENCY: 40.6194 cycles
LLC TOTAL     ACCESS:     309560  HIT:     286572  MISS:      22988
LLC LOAD      ACCESS:     162202  HIT:     143769  MISS:      18433
LLC RFO       ACCESS:      48908  HIT:      45137  MISS:       3771
LLC PREFETCH  ACCESS:          0  HIT:          0  MISS:          0
LLC WRITEBACK ACCESS:      98278  HIT:      97494  MISS:        784
LLC TRANSLATION ACCESS:        172  HIT:        172  MISS:          0
LLC PREFETCH  REQUESTED:          0  ISSUED:          0  USEFUL:          0  USELESS:          0
LLC AVERAGE MISS LATENCY: 180.451 cycles
Insertion Distribution: 
	LOAD 5180 0 17714 5281 
	RFO 3136 0 3727 500 
	PREF 0 0 0 0 
	WRITEBACK 0 0 0 784 
	 0 0 13 0 
Total Prefetch Downgrades: 0

DRAM Statistics
 CHANNEL 0
 RQ ROW_BUFFER_HIT:       3568  ROW_BUFFER_MISS:      18636
 DBUS AVG_CONGESTED_CYCLE:    3.79611
 WQ ROW_BUFFER_HIT:        818  ROW_BUFFER_MISS:       3737  FULL:          0


CPU 0 Branch Prediction Accuracy: 88.0467% MPKI: 23.2346 Average ROB Occupancy at Mispredict: 18.4441
Branch type MPKI
BRANCH_DIRECT_JUMP: 0.00248
BRANCH_INDIRECT: 0.00086
BRANCH_CONDITIONAL: 23.171
BRANCH_DIRECT_CALL: 0.00309
BRANCH_INDIRECT_CALL: 0.05537
BRANCH_RETURN: 0.00174

