
*** ChampSim Multicore Out-of-Order Simulator ***

Warmup Instructions: 10000000
Simulation Instructions: 100000000
Number of CPUs: 1
Off-chip DRAM Size: 4 GiB Channels: 1 Width: 64-bit Data Rate: 3200 MT/s

VirtualMemory physical capacity: 8588881920 num_ppages: 2096895
VirtualMemory page size: 4096 log2_page_size: 12

CPU 0 runs /Users/brandon/Documents/CoursesWi22/CSE240C/Homework2/traces/omnetpp_340B.trace.xz
CPU 0 Bimodal branch predictor
Basic BTB sets: 1024 ways: 8 indirect buffer size: 4096 RAS size: 64
Initialize SRRIP state
Heartbeat CPU 0 instructions: 10000002 cycles: 2500207 heartbeat IPC: 3.99967 cumulative IPC: 3.99967 (Simulation time: 0 hr 0 min 51 sec) 

Warmup complete CPU 0 instructions: 10000002 cycles: 2500207 (Simulation time: 0 hr 0 min 51 sec) 

Heartbeat CPU 0 instructions: 20000000 cycles: 27195058 heartbeat IPC: 0.404943 cumulative IPC: 0.404943 (Simulation time: 0 hr 2 min 31 sec) 
Heartbeat CPU 0 instructions: 30000002 cycles: 52139020 heartbeat IPC: 0.400899 cumulative IPC: 0.402911 (Simulation time: 0 hr 4 min 8 sec) 
Heartbeat CPU 0 instructions: 40000000 cycles: 76720103 heartbeat IPC: 0.406817 cumulative IPC: 0.404204 (Simulation time: 0 hr 5 min 41 sec) 
Heartbeat CPU 0 instructions: 50000002 cycles: 101868574 heartbeat IPC: 0.397639 cumulative IPC: 0.402543 (Simulation time: 0 hr 7 min 9 sec) 
Heartbeat CPU 0 instructions: 60000001 cycles: 128096965 heartbeat IPC: 0.381266 cumulative IPC: 0.398099 (Simulation time: 0 hr 8 min 52 sec) 
Heartbeat CPU 0 instructions: 70000002 cycles: 154019142 heartbeat IPC: 0.38577 cumulative IPC: 0.39599 (Simulation time: 0 hr 10 min 23 sec) 
Heartbeat CPU 0 instructions: 80000003 cycles: 179932722 heartbeat IPC: 0.385898 cumulative IPC: 0.394516 (Simulation time: 0 hr 12 min 12 sec) 
Heartbeat CPU 0 instructions: 90000000 cycles: 206307337 heartbeat IPC: 0.379152 cumulative IPC: 0.392528 (Simulation time: 0 hr 13 min 47 sec) 
Heartbeat CPU 0 instructions: 100000002 cycles: 232085107 heartbeat IPC: 0.387931 cumulative IPC: 0.392012 (Simulation time: 0 hr 15 min 30 sec) 
Heartbeat CPU 0 instructions: 110000000 cycles: 256993931 heartbeat IPC: 0.401464 cumulative IPC: 0.392937 (Simulation time: 0 hr 17 min 4 sec) 
Finished CPU 0 instructions: 100000000 cycles: 254493726 cumulative IPC: 0.392937 (Simulation time: 0 hr 17 min 4 sec) 

ChampSim completed all CPUs

Region of Interest Statistics

CPU 0 cumulative IPC: 0.392937 instructions: 100000000 cycles: 254493726
cpu0_DTLB TOTAL     ACCESS:   23847354  HIT:   21950266  MISS:    1897088
cpu0_DTLB LOAD      ACCESS:   13879787  HIT:   12298639  MISS:    1581148
cpu0_DTLB RFO       ACCESS:    9967567  HIT:    9651627  MISS:     315940
cpu0_DTLB PREFETCH  ACCESS:          0  HIT:          0  MISS:          0
cpu0_DTLB WRITEBACK ACCESS:          0  HIT:          0  MISS:          0
cpu0_DTLB TRANSLATION ACCESS:          0  HIT:          0  MISS:          0
cpu0_DTLB PREFETCH  REQUESTED:          0  ISSUED:          0  USEFUL:          0  USELESS:          0
cpu0_DTLB AVERAGE MISS LATENCY: 13.1246 cycles
cpu0_ITLB TOTAL     ACCESS:   11128587  HIT:   11093220  MISS:      35367
cpu0_ITLB LOAD      ACCESS:   11128587  HIT:   11093220  MISS:      35367
cpu0_ITLB RFO       ACCESS:          0  HIT:          0  MISS:          0
cpu0_ITLB PREFETCH  ACCESS:          0  HIT:          0  MISS:          0
cpu0_ITLB WRITEBACK ACCESS:          0  HIT:          0  MISS:          0
cpu0_ITLB TRANSLATION ACCESS:          0  HIT:          0  MISS:          0
cpu0_ITLB PREFETCH  REQUESTED:          0  ISSUED:          0  USEFUL:          0  USELESS:          0
cpu0_ITLB AVERAGE MISS LATENCY: 9.26058 cycles
cpu0_L1I TOTAL     ACCESS:    8347145  HIT:    8340796  MISS:       6349
cpu0_L1I LOAD      ACCESS:    8347145  HIT:    8340796  MISS:       6349
cpu0_L1I RFO       ACCESS:          0  HIT:          0  MISS:          0
cpu0_L1I PREFETCH  ACCESS:          0  HIT:          0  MISS:          0
cpu0_L1I WRITEBACK ACCESS:          0  HIT:          0  MISS:          0
cpu0_L1I TRANSLATION ACCESS:          0  HIT:          0  MISS:          0
cpu0_L1I PREFETCH  REQUESTED:          0  ISSUED:          0  USEFUL:          0  USELESS:          0
cpu0_L1I AVERAGE MISS LATENCY: 58.0232 cycles
cpu0_STLB TOTAL     ACCESS:    1932455  HIT:    1457262  MISS:     475193
cpu0_STLB LOAD      ACCESS:    1616515  HIT:    1262597  MISS:     353918
cpu0_STLB RFO       ACCESS:     315940  HIT:     194665  MISS:     121275
cpu0_STLB PREFETCH  ACCESS:          0  HIT:          0  MISS:          0
cpu0_STLB WRITEBACK ACCESS:          0  HIT:          0  MISS:          0
cpu0_STLB TRANSLATION ACCESS:          0  HIT:          0  MISS:          0
cpu0_STLB PREFETCH  REQUESTED:          0  ISSUED:          0  USEFUL:          0  USELESS:          0
cpu0_STLB AVERAGE MISS LATENCY: 16.0152 cycles
cpu0_L1D TOTAL     ACCESS:   31441780  HIT:   28943887  MISS:    2497893
cpu0_L1D LOAD      ACCESS:   15712390  HIT:   13529693  MISS:    2182697
cpu0_L1D RFO       ACCESS:   15288976  HIT:   14978282  MISS:     310694
cpu0_L1D PREFETCH  ACCESS:          0  HIT:          0  MISS:          0
cpu0_L1D WRITEBACK ACCESS:          0  HIT:          0  MISS:          0
cpu0_L1D TRANSLATION ACCESS:     440414  HIT:     435912  MISS:       4502
cpu0_L1D PREFETCH  REQUESTED:          0  ISSUED:          0  USEFUL:          0  USELESS:          0
cpu0_L1D AVERAGE MISS LATENCY: 142.907 cycles
cpu0_L2C TOTAL     ACCESS:    3581313  HIT:    1431227  MISS:    2150086
cpu0_L2C LOAD      ACCESS:    2189007  HIT:     331128  MISS:    1857879
cpu0_L2C RFO       ACCESS:     310694  HIT:      21998  MISS:     288696
cpu0_L2C PREFETCH  ACCESS:          0  HIT:          0  MISS:          0
cpu0_L2C WRITEBACK ACCESS:    1077110  HIT:    1074799  MISS:       2311
cpu0_L2C TRANSLATION ACCESS:       4502  HIT:       3302  MISS:       1200
cpu0_L2C PREFETCH  REQUESTED:          0  ISSUED:          0  USEFUL:          0  USELESS:          0
cpu0_L2C AVERAGE MISS LATENCY: 153.225 cycles
LLC TOTAL     ACCESS:    3079435  HIT:    1046236  MISS:    2033199
LLC LOAD      ACCESS:    1857877  HIT:     435048  MISS:    1422829
LLC RFO       ACCESS:     288695  HIT:      71706  MISS:     216989
LLC PREFETCH  ACCESS:          0  HIT:          0  MISS:          0
LLC WRITEBACK ACCESS:     931663  HIT:     538339  MISS:     393324
LLC TRANSLATION ACCESS:       1200  HIT:       1143  MISS:         57
LLC PREFETCH  REQUESTED:          0  ISSUED:          0  USEFUL:          0  USELESS:          0
LLC AVERAGE MISS LATENCY: 139.85 cycles
Insertion Distribution: 
	LOAD 156766 0 205841 1213786 
	RFO 58917 0 71006 109435 
	PREF 0 0 0 0 
	WRITEBACK 0 0 0 423366 
	 11 0 49 22 
Total Prefetch Downgrades: 0

DRAM Statistics
 CHANNEL 0
 RQ ROW_BUFFER_HIT:      94936  ROW_BUFFER_MISS:    1544824
 DBUS AVG_CONGESTED_CYCLE:    3.91841
 WQ ROW_BUFFER_HIT:     173408  ROW_BUFFER_MISS:     497935  FULL:          0


CPU 0 Branch Prediction Accuracy: 94.4212% MPKI: 13.4017 Average ROB Occupancy at Mispredict: 52.114
Branch type MPKI
BRANCH_DIRECT_JUMP: 0.00017
BRANCH_INDIRECT: 0.04543
BRANCH_CONDITIONAL: 13.2857
BRANCH_DIRECT_CALL: 8e-05
BRANCH_INDIRECT_CALL: 0.04734
BRANCH_RETURN: 0.02301

