
*** ChampSim Multicore Out-of-Order Simulator ***

Warmup Instructions: 10000000
Simulation Instructions: 100000000
Number of CPUs: 1
Off-chip DRAM Size: 4 GiB Channels: 1 Width: 64-bit Data Rate: 3200 MT/s

VirtualMemory physical capacity: 8588881920 num_ppages: 2096895
VirtualMemory page size: 4096 log2_page_size: 12

CPU 0 runs /Users/brandon/Documents/CoursesWi22/CSE240C/Homework2/traces/tonto_422B.trace.xz
CPU 0 Bimodal branch predictor
Basic BTB sets: 1024 ways: 8 indirect buffer size: 4096 RAS size: 64
Initialize SRRIP state
Heartbeat CPU 0 instructions: 10000003 cycles: 2501967 heartbeat IPC: 3.99686 cumulative IPC: 3.99686 (Simulation time: 0 hr 0 min 32 sec) 

Warmup complete CPU 0 instructions: 10000003 cycles: 2501967 (Simulation time: 0 hr 0 min 32 sec) 

Heartbeat CPU 0 instructions: 20000000 cycles: 8976559 heartbeat IPC: 1.5445 cumulative IPC: 1.5445 (Simulation time: 0 hr 1 min 20 sec) 
Heartbeat CPU 0 instructions: 30000000 cycles: 15446158 heartbeat IPC: 1.54569 cumulative IPC: 1.54509 (Simulation time: 0 hr 2 min 5 sec) 
Heartbeat CPU 0 instructions: 40000002 cycles: 22042430 heartbeat IPC: 1.51601 cumulative IPC: 1.53528 (Simulation time: 0 hr 2 min 50 sec) 
Heartbeat CPU 0 instructions: 50000000 cycles: 29741023 heartbeat IPC: 1.29894 cumulative IPC: 1.46848 (Simulation time: 0 hr 3 min 44 sec) 
Heartbeat CPU 0 instructions: 60000002 cycles: 37285593 heartbeat IPC: 1.32546 cumulative IPC: 1.43746 (Simulation time: 0 hr 4 min 55 sec) 
Heartbeat CPU 0 instructions: 70000001 cycles: 44607839 heartbeat IPC: 1.3657 cumulative IPC: 1.42498 (Simulation time: 0 hr 6 min 1 sec) 
Heartbeat CPU 0 instructions: 80000002 cycles: 51585150 heartbeat IPC: 1.43322 cumulative IPC: 1.42615 (Simulation time: 0 hr 7 min 4 sec) 
Heartbeat CPU 0 instructions: 90000000 cycles: 58668476 heartbeat IPC: 1.41177 cumulative IPC: 1.42434 (Simulation time: 0 hr 8 min 4 sec) 
Heartbeat CPU 0 instructions: 100000002 cycles: 65722109 heartbeat IPC: 1.41771 cumulative IPC: 1.4236 (Simulation time: 0 hr 9 min 5 sec) 
Heartbeat CPU 0 instructions: 110000001 cycles: 72542547 heartbeat IPC: 1.46618 cumulative IPC: 1.42774 (Simulation time: 0 hr 10 min 4 sec) 
Finished CPU 0 instructions: 100000003 cycles: 70040581 cumulative IPC: 1.42774 (Simulation time: 0 hr 10 min 4 sec) 

ChampSim completed all CPUs

Region of Interest Statistics

CPU 0 cumulative IPC: 1.42774 instructions: 100000003 cycles: 70040581
cpu0_DTLB TOTAL     ACCESS:   12819171  HIT:   12782903  MISS:      36268
cpu0_DTLB LOAD      ACCESS:    9453028  HIT:    9426595  MISS:      26433
cpu0_DTLB RFO       ACCESS:    3366143  HIT:    3356308  MISS:       9835
cpu0_DTLB PREFETCH  ACCESS:          0  HIT:          0  MISS:          0
cpu0_DTLB WRITEBACK ACCESS:          0  HIT:          0  MISS:          0
cpu0_DTLB TRANSLATION ACCESS:          0  HIT:          0  MISS:          0
cpu0_DTLB PREFETCH  REQUESTED:          0  ISSUED:          0  USEFUL:          0  USELESS:          0
cpu0_DTLB AVERAGE MISS LATENCY: 13.3737 cycles
cpu0_ITLB TOTAL     ACCESS:    4162904  HIT:    4162873  MISS:         31
cpu0_ITLB LOAD      ACCESS:    4162904  HIT:    4162873  MISS:         31
cpu0_ITLB RFO       ACCESS:          0  HIT:          0  MISS:          0
cpu0_ITLB PREFETCH  ACCESS:          0  HIT:          0  MISS:          0
cpu0_ITLB WRITEBACK ACCESS:          0  HIT:          0  MISS:          0
cpu0_ITLB TRANSLATION ACCESS:          0  HIT:          0  MISS:          0
cpu0_ITLB PREFETCH  REQUESTED:          0  ISSUED:          0  USEFUL:          0  USELESS:          0
cpu0_ITLB AVERAGE MISS LATENCY: 212.742 cycles
cpu0_L1I TOTAL     ACCESS:    6344318  HIT:    6343202  MISS:       1116
cpu0_L1I LOAD      ACCESS:    6344318  HIT:    6343202  MISS:       1116
cpu0_L1I RFO       ACCESS:          0  HIT:          0  MISS:          0
cpu0_L1I PREFETCH  ACCESS:          0  HIT:          0  MISS:          0
cpu0_L1I WRITEBACK ACCESS:          0  HIT:          0  MISS:          0
cpu0_L1I TRANSLATION ACCESS:          0  HIT:          0  MISS:          0
cpu0_L1I PREFETCH  REQUESTED:          0  ISSUED:          0  USEFUL:          0  USELESS:          0
cpu0_L1I AVERAGE MISS LATENCY: 220.556 cycles
cpu0_STLB TOTAL     ACCESS:      36299  HIT:      35637  MISS:        662
cpu0_STLB LOAD      ACCESS:      26464  HIT:      26418  MISS:         46
cpu0_STLB RFO       ACCESS:       9835  HIT:       9219  MISS:        616
cpu0_STLB PREFETCH  ACCESS:          0  HIT:          0  MISS:          0
cpu0_STLB WRITEBACK ACCESS:          0  HIT:          0  MISS:          0
cpu0_STLB TRANSLATION ACCESS:          0  HIT:          0  MISS:          0
cpu0_STLB PREFETCH  REQUESTED:          0  ISSUED:          0  USEFUL:          0  USELESS:          0
cpu0_STLB AVERAGE MISS LATENCY: 248.92 cycles
cpu0_L1D TOTAL     ACCESS:   13816874  HIT:   12602541  MISS:    1214333
cpu0_L1D LOAD      ACCESS:    7754540  HIT:    6957584  MISS:     796956
cpu0_L1D RFO       ACCESS:    6061675  HIT:    5644311  MISS:     417364
cpu0_L1D PREFETCH  ACCESS:          0  HIT:          0  MISS:          0
cpu0_L1D WRITEBACK ACCESS:          0  HIT:          0  MISS:          0
cpu0_L1D TRANSLATION ACCESS:        659  HIT:        646  MISS:         13
cpu0_L1D PREFETCH  REQUESTED:          0  ISSUED:          0  USEFUL:          0  USELESS:          0
cpu0_L1D AVERAGE MISS LATENCY: 87.728 cycles
cpu0_L2C TOTAL     ACCESS:    1652889  HIT:     805593  MISS:     847296
cpu0_L2C LOAD      ACCESS:     798072  HIT:     213769  MISS:     584303
cpu0_L2C RFO       ACCESS:     417364  HIT:     154403  MISS:     262961
cpu0_L2C PREFETCH  ACCESS:          0  HIT:          0  MISS:          0
cpu0_L2C WRITEBACK ACCESS:     437440  HIT:     437414  MISS:         26
cpu0_L2C TRANSLATION ACCESS:         13  HIT:          7  MISS:          6
cpu0_L2C PREFETCH  REQUESTED:          0  ISSUED:          0  USEFUL:          0  USELESS:          0
cpu0_L2C AVERAGE MISS LATENCY: 110.201 cycles
LLC TOTAL     ACCESS:    1221385  HIT:     979074  MISS:     242311
LLC LOAD      ACCESS:     584290  HIT:     426384  MISS:     157906
LLC RFO       ACCESS:     262961  HIT:     200249  MISS:      62712
LLC PREFETCH  ACCESS:          0  HIT:          0  MISS:          0
LLC WRITEBACK ACCESS:     374128  HIT:     352435  MISS:      21693
LLC TRANSLATION ACCESS:          6  HIT:          6  MISS:          0
LLC PREFETCH  REQUESTED:          0  ISSUED:          0  USEFUL:          0  USELESS:          0
LLC AVERAGE MISS LATENCY: 311.887 cycles
Insertion Distribution: 
	LOAD 44513 0 80417 47276 
	RFO 11743 0 42225 12044 
	PREF 0 0 0 0 
	WRITEBACK 0 0 0 21693 
	 0 0 9 0 
Total Prefetch Downgrades: 0

DRAM Statistics
 CHANNEL 0
 RQ ROW_BUFFER_HIT:      33311  ROW_BUFFER_MISS:     187047
 DBUS AVG_CONGESTED_CYCLE:    3.97474
 WQ ROW_BUFFER_HIT:      14938  ROW_BUFFER_MISS:     129322  FULL:       4556


CPU 0 Branch Prediction Accuracy: 95.8021% MPKI: 4.07385 Average ROB Occupancy at Mispredict: 71.568
Branch type MPKI
BRANCH_DIRECT_JUMP: 0.00041
BRANCH_INDIRECT: 5e-05
BRANCH_CONDITIONAL: 4.07099
BRANCH_DIRECT_CALL: 0.00126
BRANCH_INDIRECT_CALL: 0
BRANCH_RETURN: 0.00114

