
*** ChampSim Multicore Out-of-Order Simulator ***

Warmup Instructions: 10000000
Simulation Instructions: 100000000
Number of CPUs: 1
Off-chip DRAM Size: 4 GiB Channels: 1 Width: 64-bit Data Rate: 3200 MT/s

VirtualMemory physical capacity: 8588881920 num_ppages: 2096895
VirtualMemory page size: 4096 log2_page_size: 12

CPU 0 runs /Users/brandon/Documents/CoursesWi22/CSE240C/Homework2/traces/xalancbmk_748B.trace.xz
CPU 0 Bimodal branch predictor
Basic BTB sets: 1024 ways: 8 indirect buffer size: 4096 RAS size: 64
Initialize SRRIP state
Heartbeat CPU 0 instructions: 10000002 cycles: 2655088 heartbeat IPC: 3.76635 cumulative IPC: 3.76635 (Simulation time: 0 hr 0 min 44 sec) 

Warmup complete CPU 0 instructions: 10000002 cycles: 2655088 (Simulation time: 0 hr 0 min 44 sec) 

Heartbeat CPU 0 instructions: 20000001 cycles: 11808037 heartbeat IPC: 1.09254 cumulative IPC: 1.09254 (Simulation time: 0 hr 1 min 35 sec) 
Heartbeat CPU 0 instructions: 30000002 cycles: 20695441 heartbeat IPC: 1.12519 cumulative IPC: 1.10863 (Simulation time: 0 hr 2 min 21 sec) 
Heartbeat CPU 0 instructions: 40000002 cycles: 30017385 heartbeat IPC: 1.07274 cumulative IPC: 1.0964 (Simulation time: 0 hr 3 min 10 sec) 
Heartbeat CPU 0 instructions: 50000001 cycles: 38522997 heartbeat IPC: 1.17569 cumulative IPC: 1.1152 (Simulation time: 0 hr 4 min 1 sec) 
Heartbeat CPU 0 instructions: 60000003 cycles: 45656297 heartbeat IPC: 1.40188 cumulative IPC: 1.16276 (Simulation time: 0 hr 5 min 0 sec) 
Heartbeat CPU 0 instructions: 70000000 cycles: 51800107 heartbeat IPC: 1.62765 cumulative IPC: 1.22088 (Simulation time: 0 hr 6 min 7 sec) 
Heartbeat CPU 0 instructions: 80000003 cycles: 62154373 heartbeat IPC: 0.965786 cumulative IPC: 1.17648 (Simulation time: 0 hr 6 min 58 sec) 
Heartbeat CPU 0 instructions: 90000003 cycles: 70752518 heartbeat IPC: 1.16304 cumulative IPC: 1.17479 (Simulation time: 0 hr 7 min 51 sec) 
Heartbeat CPU 0 instructions: 100000003 cycles: 78710454 heartbeat IPC: 1.25661 cumulative IPC: 1.18335 (Simulation time: 0 hr 8 min 46 sec) 
Heartbeat CPU 0 instructions: 110000001 cycles: 85961925 heartbeat IPC: 1.37903 cumulative IPC: 1.20038 (Simulation time: 0 hr 9 min 44 sec) 
Finished CPU 0 instructions: 100000004 cycles: 83306838 cumulative IPC: 1.20038 (Simulation time: 0 hr 9 min 44 sec) 

ChampSim completed all CPUs

Region of Interest Statistics

CPU 0 cumulative IPC: 1.20038 instructions: 100000004 cycles: 83306838
cpu0_DTLB TOTAL     ACCESS:   20938009  HIT:   19922759  MISS:    1015250
cpu0_DTLB LOAD      ACCESS:   15325378  HIT:   14390558  MISS:     934820
cpu0_DTLB RFO       ACCESS:    5612631  HIT:    5532201  MISS:      80430
cpu0_DTLB PREFETCH  ACCESS:          0  HIT:          0  MISS:          0
cpu0_DTLB WRITEBACK ACCESS:          0  HIT:          0  MISS:          0
cpu0_DTLB TRANSLATION ACCESS:          0  HIT:          0  MISS:          0
cpu0_DTLB PREFETCH  REQUESTED:          0  ISSUED:          0  USEFUL:          0  USELESS:          0
cpu0_DTLB AVERAGE MISS LATENCY: 12.6352 cycles
cpu0_ITLB TOTAL     ACCESS:    8530799  HIT:    8415764  MISS:     115035
cpu0_ITLB LOAD      ACCESS:    8530799  HIT:    8415764  MISS:     115035
cpu0_ITLB RFO       ACCESS:          0  HIT:          0  MISS:          0
cpu0_ITLB PREFETCH  ACCESS:          0  HIT:          0  MISS:          0
cpu0_ITLB WRITEBACK ACCESS:          0  HIT:          0  MISS:          0
cpu0_ITLB TRANSLATION ACCESS:          0  HIT:          0  MISS:          0
cpu0_ITLB PREFETCH  REQUESTED:          0  ISSUED:          0  USEFUL:          0  USELESS:          0
cpu0_ITLB AVERAGE MISS LATENCY: 9.07953 cycles
cpu0_L1I TOTAL     ACCESS:    5572378  HIT:    5474361  MISS:      98017
cpu0_L1I LOAD      ACCESS:    5572378  HIT:    5474361  MISS:      98017
cpu0_L1I RFO       ACCESS:          0  HIT:          0  MISS:          0
cpu0_L1I PREFETCH  ACCESS:          0  HIT:          0  MISS:          0
cpu0_L1I WRITEBACK ACCESS:          0  HIT:          0  MISS:          0
cpu0_L1I TRANSLATION ACCESS:          0  HIT:          0  MISS:          0
cpu0_L1I PREFETCH  REQUESTED:          0  ISSUED:          0  USEFUL:          0  USELESS:          0
cpu0_L1I AVERAGE MISS LATENCY: 14.8396 cycles
cpu0_STLB TOTAL     ACCESS:    1130285  HIT:    1056276  MISS:      74009
cpu0_STLB LOAD      ACCESS:    1049855  HIT:    1003767  MISS:      46088
cpu0_STLB RFO       ACCESS:      80430  HIT:      52509  MISS:      27921
cpu0_STLB PREFETCH  ACCESS:          0  HIT:          0  MISS:          0
cpu0_STLB WRITEBACK ACCESS:          0  HIT:          0  MISS:          0
cpu0_STLB TRANSLATION ACCESS:          0  HIT:          0  MISS:          0
cpu0_STLB PREFETCH  REQUESTED:          0  ISSUED:          0  USEFUL:          0  USELESS:          0
cpu0_STLB AVERAGE MISS LATENCY: 49.8347 cycles
cpu0_L1D TOTAL     ACCESS:   22867164  HIT:   21392583  MISS:    1474581
cpu0_L1D LOAD      ACCESS:   13615093  HIT:   12401691  MISS:    1213402
cpu0_L1D RFO       ACCESS:    9185225  HIT:    8939022  MISS:     246203
cpu0_L1D PREFETCH  ACCESS:          0  HIT:          0  MISS:          0
cpu0_L1D WRITEBACK ACCESS:          0  HIT:          0  MISS:          0
cpu0_L1D TRANSLATION ACCESS:      66846  HIT:      51870  MISS:      14976
cpu0_L1D PREFETCH  REQUESTED:          0  ISSUED:          0  USEFUL:          0  USELESS:          0
cpu0_L1D AVERAGE MISS LATENCY: 45.7616 cycles
cpu0_L2C TOTAL     ACCESS:    1931877  HIT:    1587818  MISS:     344059
cpu0_L2C LOAD      ACCESS:    1311379  HIT:    1190955  MISS:     120424
cpu0_L2C RFO       ACCESS:     246190  HIT:      23131  MISS:     223059
cpu0_L2C PREFETCH  ACCESS:          0  HIT:          0  MISS:          0
cpu0_L2C WRITEBACK ACCESS:     359332  HIT:     358854  MISS:        478
cpu0_L2C TRANSLATION ACCESS:      14976  HIT:      14878  MISS:         98
cpu0_L2C PREFETCH  REQUESTED:          0  ISSUED:          0  USEFUL:          0  USELESS:          0
cpu0_L2C AVERAGE MISS LATENCY: 149.497 cycles
LLC TOTAL     ACCESS:     632844  HIT:     230405  MISS:     402439
LLC LOAD      ACCESS:     120423  HIT:      68827  MISS:      51596
LLC RFO       ACCESS:     223059  HIT:      32253  MISS:     190806
LLC PREFETCH  ACCESS:          0  HIT:          0  MISS:          0
LLC WRITEBACK ACCESS:     289264  HIT:     129263  MISS:     160001
LLC TRANSLATION ACCESS:         98  HIT:         62  MISS:         36
LLC PREFETCH  REQUESTED:          0  ISSUED:          0  USEFUL:          0  USELESS:          0
LLC AVERAGE MISS LATENCY: 109.881 cycles
Insertion Distribution: 
	LOAD 16917 0 33292 14192 
	RFO 9212 0 30768 163717 
	PREF 0 0 0 0 
	WRITEBACK 0 0 0 160007 
	 17 0 54 1 
Total Prefetch Downgrades: 0

DRAM Statistics
 CHANNEL 0
 RQ ROW_BUFFER_HIT:      99175  ROW_BUFFER_MISS:     143256
 DBUS AVG_CONGESTED_CYCLE:    3.94635
 WQ ROW_BUFFER_HIT:      18169  ROW_BUFFER_MISS:     192739  FULL:          0


CPU 0 Branch Prediction Accuracy: 96.4988% MPKI: 10.3974 Average ROB Occupancy at Mispredict: 40.2794
Branch type MPKI
BRANCH_DIRECT_JUMP: 0.0002
BRANCH_INDIRECT: 0.35495
BRANCH_CONDITIONAL: 7.96079
BRANCH_DIRECT_CALL: 9e-05
BRANCH_INDIRECT_CALL: 0.45393
BRANCH_RETURN: 1.62746

