
*** ChampSim Multicore Out-of-Order Simulator ***

Warmup Instructions: 10000000
Simulation Instructions: 100000000
Number of CPUs: 1
Off-chip DRAM Size: 4 GiB Channels: 1 Width: 64-bit Data Rate: 3200 MT/s

VirtualMemory physical capacity: 8588881920 num_ppages: 2096895
VirtualMemory page size: 4096 log2_page_size: 12

CPU 0 runs /datasets/cs240c-wi22-a00-public/data/Assignment2/hmmer_7B.trace.xz
CPU 0 Bimodal branch predictor
Basic BTB sets: 1024 ways: 8 indirect buffer size: 4096 RAS size: 64
Initialize Hawkeye state
Heartbeat CPU 0 instructions: 10000004 cycles: 3986065 heartbeat IPC: 2.50874 cumulative IPC: 2.50874 (Simulation time: 0 hr 0 min 55 sec) 

Warmup complete CPU 0 instructions: 10000004 cycles: 3986065 (Simulation time: 0 hr 0 min 55 sec) 

Heartbeat CPU 0 instructions: 20000004 cycles: 9286469 heartbeat IPC: 1.88665 cumulative IPC: 1.88665 (Simulation time: 0 hr 2 min 19 sec) 
Heartbeat CPU 0 instructions: 30000001 cycles: 14187840 heartbeat IPC: 2.04024 cumulative IPC: 1.96044 (Simulation time: 0 hr 3 min 40 sec) 
Heartbeat CPU 0 instructions: 40000001 cycles: 18708288 heartbeat IPC: 2.21217 cumulative IPC: 2.03774 (Simulation time: 0 hr 4 min 58 sec) 
Heartbeat CPU 0 instructions: 50000000 cycles: 24043653 heartbeat IPC: 1.87429 cumulative IPC: 1.99426 (Simulation time: 0 hr 6 min 21 sec) 
Heartbeat CPU 0 instructions: 60000000 cycles: 28379969 heartbeat IPC: 2.3061 cumulative IPC: 2.04969 (Simulation time: 0 hr 7 min 40 sec) 
Heartbeat CPU 0 instructions: 70000003 cycles: 32703187 heartbeat IPC: 2.31309 cumulative IPC: 2.08935 (Simulation time: 0 hr 8 min 56 sec) 
Heartbeat CPU 0 instructions: 80000001 cycles: 37012902 heartbeat IPC: 2.32034 cumulative IPC: 2.11949 (Simulation time: 0 hr 10 min 18 sec) 
Heartbeat CPU 0 instructions: 90000004 cycles: 41332509 heartbeat IPC: 2.31503 cumulative IPC: 2.1421 (Simulation time: 0 hr 11 min 36 sec) 
Heartbeat CPU 0 instructions: 100000002 cycles: 45651572 heartbeat IPC: 2.31532 cumulative IPC: 2.16006 (Simulation time: 0 hr 12 min 54 sec) 
Heartbeat CPU 0 instructions: 110000001 cycles: 49980350 heartbeat IPC: 2.31012 cumulative IPC: 2.17418 (Simulation time: 0 hr 14 min 11 sec) 
Finished CPU 0 instructions: 100000002 cycles: 45994286 cumulative IPC: 2.17418 (Simulation time: 0 hr 14 min 11 sec) 

ChampSim completed all CPUs

Region of Interest Statistics

CPU 0 cumulative IPC: 2.17418 instructions: 100000002 cycles: 45994286
cpu0_DTLB TOTAL     ACCESS:   40544076  HIT:   40529905  MISS:      14171
cpu0_DTLB LOAD      ACCESS:   32388723  HIT:   32380989  MISS:       7734
cpu0_DTLB RFO       ACCESS:    8155353  HIT:    8148916  MISS:       6437
cpu0_DTLB PREFETCH  ACCESS:          0  HIT:          0  MISS:          0
cpu0_DTLB WRITEBACK ACCESS:          0  HIT:          0  MISS:          0
cpu0_DTLB TRANSLATION ACCESS:          0  HIT:          0  MISS:          0
cpu0_DTLB PREFETCH  REQUESTED:          0  ISSUED:          0  USEFUL:          0  USELESS:          0
cpu0_DTLB AVERAGE MISS LATENCY: 14.7382 cycles
cpu0_ITLB TOTAL     ACCESS:     798058  HIT:     797986  MISS:         72
cpu0_ITLB LOAD      ACCESS:     798058  HIT:     797986  MISS:         72
cpu0_ITLB RFO       ACCESS:          0  HIT:          0  MISS:          0
cpu0_ITLB PREFETCH  ACCESS:          0  HIT:          0  MISS:          0
cpu0_ITLB WRITEBACK ACCESS:          0  HIT:          0  MISS:          0
cpu0_ITLB TRANSLATION ACCESS:          0  HIT:          0  MISS:          0
cpu0_ITLB PREFETCH  REQUESTED:          0  ISSUED:          0  USEFUL:          0  USELESS:          0
cpu0_ITLB AVERAGE MISS LATENCY: 23.2639 cycles
cpu0_L1I TOTAL     ACCESS:      62176  HIT:      62071  MISS:        105
cpu0_L1I LOAD      ACCESS:      62176  HIT:      62071  MISS:        105
cpu0_L1I RFO       ACCESS:          0  HIT:          0  MISS:          0
cpu0_L1I PREFETCH  ACCESS:          0  HIT:          0  MISS:          0
cpu0_L1I WRITEBACK ACCESS:          0  HIT:          0  MISS:          0
cpu0_L1I TRANSLATION ACCESS:          0  HIT:          0  MISS:          0
cpu0_L1I PREFETCH  REQUESTED:          0  ISSUED:          0  USEFUL:          0  USELESS:          0
cpu0_L1I AVERAGE MISS LATENCY: 110.2 cycles
cpu0_STLB TOTAL     ACCESS:      14243  HIT:      13788  MISS:        455
cpu0_STLB LOAD      ACCESS:       7806  HIT:       7798  MISS:          8
cpu0_STLB RFO       ACCESS:       6437  HIT:       5990  MISS:        447
cpu0_STLB PREFETCH  ACCESS:          0  HIT:          0  MISS:          0
cpu0_STLB WRITEBACK ACCESS:          0  HIT:          0  MISS:          0
cpu0_STLB TRANSLATION ACCESS:          0  HIT:          0  MISS:          0
cpu0_STLB PREFETCH  REQUESTED:          0  ISSUED:          0  USEFUL:          0  USELESS:          0
cpu0_STLB AVERAGE MISS LATENCY: 180.771 cycles
cpu0_L1D TOTAL     ACCESS:   33475288  HIT:   33005204  MISS:     470084
cpu0_L1D LOAD      ACCESS:   28673389  HIT:   28512036  MISS:     161353
cpu0_L1D RFO       ACCESS:    4801445  HIT:    4492737  MISS:     308708
cpu0_L1D PREFETCH  ACCESS:          0  HIT:          0  MISS:          0
cpu0_L1D WRITEBACK ACCESS:          0  HIT:          0  MISS:          0
cpu0_L1D TRANSLATION ACCESS:        454  HIT:        431  MISS:         23
cpu0_L1D PREFETCH  REQUESTED:          0  ISSUED:          0  USEFUL:          0  USELESS:          0
cpu0_L1D AVERAGE MISS LATENCY: 251.823 cycles
cpu0_L2C TOTAL     ACCESS:     777197  HIT:     472274  MISS:     304923
cpu0_L2C LOAD      ACCESS:     161458  HIT:     149224  MISS:      12234
cpu0_L2C RFO       ACCESS:     308708  HIT:      16074  MISS:     292634
cpu0_L2C PREFETCH  ACCESS:          0  HIT:          0  MISS:          0
cpu0_L2C WRITEBACK ACCESS:     307008  HIT:     306961  MISS:         47
cpu0_L2C TRANSLATION ACCESS:         23  HIT:         15  MISS:          8
cpu0_L2C PREFETCH  REQUESTED:          0  ISSUED:          0  USEFUL:          0  USELESS:          0
cpu0_L2C AVERAGE MISS LATENCY: 371.284 cycles
LLC TOTAL     ACCESS:     596402  HIT:     451175  MISS:     145227
LLC LOAD      ACCESS:      12233  HIT:      10603  MISS:       1630
LLC RFO       ACCESS:     292633  HIT:     209788  MISS:      82845
LLC PREFETCH  ACCESS:          0  HIT:          0  MISS:          0
LLC WRITEBACK ACCESS:     291528  HIT:     230780  MISS:      60748
LLC TRANSLATION ACCESS:          8  HIT:          4  MISS:          4
LLC PREFETCH  REQUESTED:          0  ISSUED:          0  USEFUL:          0  USELESS:          0
LLC AVERAGE MISS LATENCY: 735.464 cycles
OPTgen accesses: 5335
OPTgen hits: 3762
OPTgen hit rate: 70.5155



DRAM Statistics
 CHANNEL 0
 RQ ROW_BUFFER_HIT:        953  ROW_BUFFER_MISS:      83522
 DBUS AVG_CONGESTED_CYCLE:    3.99413
 WQ ROW_BUFFER_HIT:       4144  ROW_BUFFER_MISS:      78696  FULL:       7155


CPU 0 Branch Prediction Accuracy: 98.9368% MPKI: 0.40856 Average ROB Occupancy at Mispredict: 252.377
Branch type MPKI
BRANCH_DIRECT_JUMP: 0.00016
BRANCH_INDIRECT: 0.00157
BRANCH_CONDITIONAL: 0.40659
BRANCH_DIRECT_CALL: 9e-05
BRANCH_INDIRECT_CALL: 3e-05
BRANCH_RETURN: 0.00012

