
*** ChampSim Multicore Out-of-Order Simulator ***

Warmup Instructions: 10000000
Simulation Instructions: 100000000
Number of CPUs: 1
Off-chip DRAM Size: 4 GiB Channels: 1 Width: 64-bit Data Rate: 3200 MT/s

VirtualMemory physical capacity: 8588881920 num_ppages: 2096895
VirtualMemory page size: 4096 log2_page_size: 12

CPU 0 runs /datasets/cs240c-wi22-a00-public/data/Assignment2/leslie3d_1186B.trace.xz
CPU 0 Bimodal branch predictor
Basic BTB sets: 1024 ways: 8 indirect buffer size: 4096 RAS size: 64
Initialize Hawkeye state
Heartbeat CPU 0 instructions: 10000000 cycles: 4308738 heartbeat IPC: 2.32087 cumulative IPC: 2.32087 (Simulation time: 0 hr 1 min 5 sec) 

Warmup complete CPU 0 instructions: 10000005 cycles: 4308739 (Simulation time: 0 hr 1 min 5 sec) 

Heartbeat CPU 0 instructions: 20000000 cycles: 17877654 heartbeat IPC: 0.736979 cumulative IPC: 0.736978 (Simulation time: 0 hr 2 min 53 sec) 
Heartbeat CPU 0 instructions: 30000000 cycles: 31324029 heartbeat IPC: 0.743695 cumulative IPC: 0.740321 (Simulation time: 0 hr 4 min 40 sec) 
Heartbeat CPU 0 instructions: 40000004 cycles: 44662883 heartbeat IPC: 0.74969 cumulative IPC: 0.743418 (Simulation time: 0 hr 6 min 25 sec) 
Heartbeat CPU 0 instructions: 50000001 cycles: 60769997 heartbeat IPC: 0.620843 cumulative IPC: 0.70845 (Simulation time: 0 hr 8 min 10 sec) 
Heartbeat CPU 0 instructions: 60000000 cycles: 96209969 heartbeat IPC: 0.282167 cumulative IPC: 0.544062 (Simulation time: 0 hr 11 min 22 sec) 
Heartbeat CPU 0 instructions: 70000000 cycles: 125016278 heartbeat IPC: 0.347146 cumulative IPC: 0.497069 (Simulation time: 0 hr 14 min 6 sec) 
Heartbeat CPU 0 instructions: 80000003 cycles: 135332399 heartbeat IPC: 0.969357 cumulative IPC: 0.534255 (Simulation time: 0 hr 15 min 40 sec) 
Heartbeat CPU 0 instructions: 90000002 cycles: 145552623 heartbeat IPC: 0.978452 cumulative IPC: 0.566396 (Simulation time: 0 hr 17 min 12 sec) 
Heartbeat CPU 0 instructions: 100000000 cycles: 155750898 heartbeat IPC: 0.980558 cumulative IPC: 0.594286 (Simulation time: 0 hr 18 min 42 sec) 
Heartbeat CPU 0 instructions: 110000000 cycles: 166062765 heartbeat IPC: 0.969756 cumulative IPC: 0.618223 (Simulation time: 0 hr 20 min 19 sec) 
Finished CPU 0 instructions: 100000000 cycles: 161754027 cumulative IPC: 0.618223 (Simulation time: 0 hr 20 min 19 sec) 

ChampSim completed all CPUs

Region of Interest Statistics

CPU 0 cumulative IPC: 0.618223 instructions: 100000000 cycles: 161754027
cpu0_DTLB TOTAL     ACCESS:   27968687  HIT:   27871064  MISS:      97623
cpu0_DTLB LOAD      ACCESS:   23295998  HIT:   23210127  MISS:      85871
cpu0_DTLB RFO       ACCESS:    4672689  HIT:    4660937  MISS:      11752
cpu0_DTLB PREFETCH  ACCESS:          0  HIT:          0  MISS:          0
cpu0_DTLB WRITEBACK ACCESS:          0  HIT:          0  MISS:          0
cpu0_DTLB TRANSLATION ACCESS:          0  HIT:          0  MISS:          0
cpu0_DTLB PREFETCH  REQUESTED:          0  ISSUED:          0  USEFUL:          0  USELESS:          0
cpu0_DTLB AVERAGE MISS LATENCY: 52.0384 cycles
cpu0_ITLB TOTAL     ACCESS:    2891320  HIT:    2891307  MISS:         13
cpu0_ITLB LOAD      ACCESS:    2891320  HIT:    2891307  MISS:         13
cpu0_ITLB RFO       ACCESS:          0  HIT:          0  MISS:          0
cpu0_ITLB PREFETCH  ACCESS:          0  HIT:          0  MISS:          0
cpu0_ITLB WRITEBACK ACCESS:          0  HIT:          0  MISS:          0
cpu0_ITLB TRANSLATION ACCESS:          0  HIT:          0  MISS:          0
cpu0_ITLB PREFETCH  REQUESTED:          0  ISSUED:          0  USEFUL:          0  USELESS:          0
cpu0_ITLB AVERAGE MISS LATENCY: 244.462 cycles
cpu0_L1I TOTAL     ACCESS:    1737058  HIT:    1736678  MISS:        380
cpu0_L1I LOAD      ACCESS:    1737058  HIT:    1736678  MISS:        380
cpu0_L1I RFO       ACCESS:          0  HIT:          0  MISS:          0
cpu0_L1I PREFETCH  ACCESS:          0  HIT:          0  MISS:          0
cpu0_L1I WRITEBACK ACCESS:          0  HIT:          0  MISS:          0
cpu0_L1I TRANSLATION ACCESS:          0  HIT:          0  MISS:          0
cpu0_L1I PREFETCH  REQUESTED:          0  ISSUED:          0  USEFUL:          0  USELESS:          0
cpu0_L1I AVERAGE MISS LATENCY: 330.032 cycles
cpu0_STLB TOTAL     ACCESS:      97636  HIT:      70234  MISS:      27402
cpu0_STLB LOAD      ACCESS:      85884  HIT:      63157  MISS:      22727
cpu0_STLB RFO       ACCESS:      11752  HIT:       7077  MISS:       4675
cpu0_STLB PREFETCH  ACCESS:          0  HIT:          0  MISS:          0
cpu0_STLB WRITEBACK ACCESS:          0  HIT:          0  MISS:          0
cpu0_STLB TRANSLATION ACCESS:          0  HIT:          0  MISS:          0
cpu0_STLB PREFETCH  REQUESTED:          0  ISSUED:          0  USEFUL:          0  USELESS:          0
cpu0_STLB AVERAGE MISS LATENCY: 153.387 cycles
cpu0_L1D TOTAL     ACCESS:   27013635  HIT:   23110822  MISS:    3902813
cpu0_L1D LOAD      ACCESS:   17788216  HIT:   14604383  MISS:    3183833
cpu0_L1D RFO       ACCESS:    9200866  HIT:    8485331  MISS:     715535
cpu0_L1D PREFETCH  ACCESS:          0  HIT:          0  MISS:          0
cpu0_L1D WRITEBACK ACCESS:          0  HIT:          0  MISS:          0
cpu0_L1D TRANSLATION ACCESS:      24553  HIT:      21108  MISS:       3445
cpu0_L1D PREFETCH  REQUESTED:          0  ISSUED:          0  USEFUL:          0  USELESS:          0
cpu0_L1D AVERAGE MISS LATENCY: 354.666 cycles
cpu0_L2C TOTAL     ACCESS:    4956327  HIT:    2399051  MISS:    2557276
cpu0_L2C LOAD      ACCESS:    3184161  HIT:    1036965  MISS:    2147196
cpu0_L2C RFO       ACCESS:     715215  HIT:     307551  MISS:     407664
cpu0_L2C PREFETCH  ACCESS:          0  HIT:          0  MISS:          0
cpu0_L2C WRITEBACK ACCESS:    1053506  HIT:    1051301  MISS:       2205
cpu0_L2C TRANSLATION ACCESS:       3445  HIT:       3234  MISS:        211
cpu0_L2C PREFETCH  REQUESTED:          0  ISSUED:          0  USEFUL:          0  USELESS:          0
cpu0_L2C AVERAGE MISS LATENCY: 524.481 cycles
LLC TOTAL     ACCESS:    3217396  HIT:     872796  MISS:    2344600
LLC LOAD      ACCESS:    2147188  HIT:     559777  MISS:    1587411
LLC RFO       ACCESS:     407654  HIT:     108698  MISS:     298956
LLC PREFETCH  ACCESS:          0  HIT:          0  MISS:          0
LLC WRITEBACK ACCESS:     662343  HIT:     204236  MISS:     458107
LLC TRANSLATION ACCESS:        211  HIT:         85  MISS:        126
LLC PREFETCH  REQUESTED:          0  ISSUED:          0  USEFUL:          0  USELESS:          0
LLC AVERAGE MISS LATENCY: 549.125 cycles
OPTgen accesses: 43412
OPTgen hits: 14149
OPTgen hit rate: 32.5924



DRAM Statistics
 CHANNEL 0
 RQ ROW_BUFFER_HIT:     207802  ROW_BUFFER_MISS:    1678398
 DBUS AVG_CONGESTED_CYCLE:    3.95111
 WQ ROW_BUFFER_HIT:      40608  ROW_BUFFER_MISS:     503572  FULL:      21105


CPU 0 Branch Prediction Accuracy: 96.8384% MPKI: 1.47634 Average ROB Occupancy at Mispredict: 310.927
Branch type MPKI
BRANCH_DIRECT_JUMP: 0.00016
BRANCH_INDIRECT: 0
BRANCH_CONDITIONAL: 1.47504
BRANCH_DIRECT_CALL: 0.00057
BRANCH_INDIRECT_CALL: 0
BRANCH_RETURN: 0.00057

