
*** ChampSim Multicore Out-of-Order Simulator ***

Warmup Instructions: 10000000
Simulation Instructions: 100000000
Number of CPUs: 1
Off-chip DRAM Size: 4 GiB Channels: 1 Width: 64-bit Data Rate: 3200 MT/s

VirtualMemory physical capacity: 8588881920 num_ppages: 2096895
VirtualMemory page size: 4096 log2_page_size: 12

CPU 0 runs /Users/brandon/Documents/CoursesWi22/CSE240C/Homework2/traces/bzip2_259B.trace.xz
CPU 0 Bimodal branch predictor
Basic BTB sets: 1024 ways: 8 indirect buffer size: 4096 RAS size: 64
Initialize SRRIP state
Heartbeat CPU 0 instructions: 10000002 cycles: 2535454 heartbeat IPC: 3.94407 cumulative IPC: 3.94407 (Simulation time: 0 hr 0 min 31 sec) 

Warmup complete CPU 0 instructions: 10000002 cycles: 2535454 (Simulation time: 0 hr 0 min 31 sec) 

Heartbeat CPU 0 instructions: 20000004 cycles: 9042175 heartbeat IPC: 1.53687 cumulative IPC: 1.53687 (Simulation time: 0 hr 1 min 53 sec) 
Heartbeat CPU 0 instructions: 30000002 cycles: 14479639 heartbeat IPC: 1.83909 cumulative IPC: 1.67445 (Simulation time: 0 hr 2 min 59 sec) 
Heartbeat CPU 0 instructions: 40000003 cycles: 21117946 heartbeat IPC: 1.50641 cumulative IPC: 1.61442 (Simulation time: 0 hr 3 min 46 sec) 
Heartbeat CPU 0 instructions: 50000003 cycles: 29327911 heartbeat IPC: 1.21803 cumulative IPC: 1.49296 (Simulation time: 0 hr 4 min 10 sec) 
Heartbeat CPU 0 instructions: 60000001 cycles: 37219531 heartbeat IPC: 1.26717 cumulative IPC: 1.44158 (Simulation time: 0 hr 4 min 34 sec) 
Heartbeat CPU 0 instructions: 70000004 cycles: 43717308 heartbeat IPC: 1.53899 cumulative IPC: 1.45695 (Simulation time: 0 hr 5 min 48 sec) 
Heartbeat CPU 0 instructions: 80000002 cycles: 50293341 heartbeat IPC: 1.52067 cumulative IPC: 1.46573 (Simulation time: 0 hr 7 min 1 sec) 
Heartbeat CPU 0 instructions: 90000001 cycles: 56491758 heartbeat IPC: 1.61331 cumulative IPC: 1.48268 (Simulation time: 0 hr 7 min 57 sec) 
Heartbeat CPU 0 instructions: 100000000 cycles: 64899992 heartbeat IPC: 1.18931 cumulative IPC: 1.44313 (Simulation time: 0 hr 8 min 22 sec) 
Heartbeat CPU 0 instructions: 110000000 cycles: 72870860 heartbeat IPC: 1.25457 cumulative IPC: 1.42176 (Simulation time: 0 hr 8 min 45 sec) 
Finished CPU 0 instructions: 100000003 cycles: 70335411 cumulative IPC: 1.42176 (Simulation time: 0 hr 8 min 45 sec) 

ChampSim completed all CPUs

Region of Interest Statistics

CPU 0 cumulative IPC: 1.42176 instructions: 100000003 cycles: 70335411
cpu0_DTLB TOTAL     ACCESS:   18624665  HIT:   17963024  MISS:     661641
cpu0_DTLB LOAD      ACCESS:    9570798  HIT:    8913065  MISS:     657733
cpu0_DTLB RFO       ACCESS:    9053867  HIT:    9049959  MISS:       3908
cpu0_DTLB PREFETCH  ACCESS:          0  HIT:          0  MISS:          0
cpu0_DTLB WRITEBACK ACCESS:          0  HIT:          0  MISS:          0
cpu0_DTLB TRANSLATION ACCESS:          0  HIT:          0  MISS:          0
cpu0_DTLB PREFETCH  REQUESTED:          0  ISSUED:          0  USEFUL:          0  USELESS:          0
cpu0_DTLB AVERAGE MISS LATENCY: 9.26249 cycles
cpu0_ITLB TOTAL     ACCESS:    6753677  HIT:    6753674  MISS:          3
cpu0_ITLB LOAD      ACCESS:    6753677  HIT:    6753674  MISS:          3
cpu0_ITLB RFO       ACCESS:          0  HIT:          0  MISS:          0
cpu0_ITLB PREFETCH  ACCESS:          0  HIT:          0  MISS:          0
cpu0_ITLB WRITEBACK ACCESS:          0  HIT:          0  MISS:          0
cpu0_ITLB TRANSLATION ACCESS:          0  HIT:          0  MISS:          0
cpu0_ITLB PREFETCH  REQUESTED:          0  ISSUED:          0  USEFUL:          0  USELESS:          0
cpu0_ITLB AVERAGE MISS LATENCY: 242 cycles
cpu0_L1I TOTAL     ACCESS:      58715  HIT:      58576  MISS:        139
cpu0_L1I LOAD      ACCESS:      58715  HIT:      58576  MISS:        139
cpu0_L1I RFO       ACCESS:          0  HIT:          0  MISS:          0
cpu0_L1I PREFETCH  ACCESS:          0  HIT:          0  MISS:          0
cpu0_L1I WRITEBACK ACCESS:          0  HIT:          0  MISS:          0
cpu0_L1I TRANSLATION ACCESS:          0  HIT:          0  MISS:          0
cpu0_L1I PREFETCH  REQUESTED:          0  ISSUED:          0  USEFUL:          0  USELESS:          0
cpu0_L1I AVERAGE MISS LATENCY: 209.95 cycles
cpu0_STLB TOTAL     ACCESS:     661644  HIT:     660824  MISS:        820
cpu0_STLB LOAD      ACCESS:     657736  HIT:     657461  MISS:        275
cpu0_STLB RFO       ACCESS:       3908  HIT:       3363  MISS:        545
cpu0_STLB PREFETCH  ACCESS:          0  HIT:          0  MISS:          0
cpu0_STLB WRITEBACK ACCESS:          0  HIT:          0  MISS:          0
cpu0_STLB TRANSLATION ACCESS:          0  HIT:          0  MISS:          0
cpu0_STLB PREFETCH  REQUESTED:          0  ISSUED:          0  USEFUL:          0  USELESS:          0
cpu0_STLB AVERAGE MISS LATENCY: 212.582 cycles
cpu0_L1D TOTAL     ACCESS:   20320659  HIT:   19315094  MISS:    1005565
cpu0_L1D LOAD      ACCESS:   10366616  HIT:    9480245  MISS:     886371
cpu0_L1D RFO       ACCESS:    9953227  HIT:    9834352  MISS:     118875
cpu0_L1D PREFETCH  ACCESS:          0  HIT:          0  MISS:          0
cpu0_L1D WRITEBACK ACCESS:          0  HIT:          0  MISS:          0
cpu0_L1D TRANSLATION ACCESS:        816  HIT:        497  MISS:        319
cpu0_L1D PREFETCH  REQUESTED:          0  ISSUED:          0  USEFUL:          0  USELESS:          0
cpu0_L1D AVERAGE MISS LATENCY: 85.5977 cycles
cpu0_L2C TOTAL     ACCESS:    1222696  HIT:     525786  MISS:     696910
cpu0_L2C LOAD      ACCESS:     886508  HIT:     289603  MISS:     596905
cpu0_L2C RFO       ACCESS:     118875  HIT:      18924  MISS:      99951
cpu0_L2C PREFETCH  ACCESS:          0  HIT:          0  MISS:          0
cpu0_L2C WRITEBACK ACCESS:     216994  HIT:     216956  MISS:         38
cpu0_L2C TRANSLATION ACCESS:        319  HIT:        303  MISS:         16
cpu0_L2C PREFETCH  REQUESTED:          0  ISSUED:          0  USEFUL:          0  USELESS:          0
cpu0_L2C AVERAGE MISS LATENCY: 107.671 cycles
LLC TOTAL     ACCESS:     885927  HIT:     605295  MISS:     280632
LLC LOAD      ACCESS:     596905  HIT:     416482  MISS:     180423
LLC RFO       ACCESS:      99948  HIT:      35641  MISS:      64307
LLC PREFETCH  ACCESS:          0  HIT:          0  MISS:          0
LLC WRITEBACK ACCESS:     189058  HIT:     153169  MISS:      35889
LLC TRANSLATION ACCESS:         16  HIT:          3  MISS:         13
LLC PREFETCH  REQUESTED:          0  ISSUED:          0  USEFUL:          0  USELESS:          0
LLC AVERAGE MISS LATENCY: 215.236 cycles
Insertion Distribution: 
	LOAD 45928 0 70785 64292 
	RFO 13697 0 30018 36548 
	PREF 0 0 0 0 
	WRITEBACK 0 0 0 35889 
	 0 0 12 12 
Total Prefetch Downgrades: 0

DRAM Statistics
 CHANNEL 0
 RQ ROW_BUFFER_HIT:      37173  ROW_BUFFER_MISS:     207407
 DBUS AVG_CONGESTED_CYCLE:    3.95463
 WQ ROW_BUFFER_HIT:      14357  ROW_BUFFER_MISS:     110371  FULL:       3119


CPU 0 Branch Prediction Accuracy: 93.3658% MPKI: 11.2167 Average ROB Occupancy at Mispredict: 31.7514
Branch type MPKI
BRANCH_DIRECT_JUMP: 0.0006
BRANCH_INDIRECT: 0.01713
BRANCH_CONDITIONAL: 11.1989
BRANCH_DIRECT_CALL: 5e-05
BRANCH_INDIRECT_CALL: 0
BRANCH_RETURN: 6e-05

