
*** ChampSim Multicore Out-of-Order Simulator ***

Warmup Instructions: 10000000
Simulation Instructions: 100000000
Number of CPUs: 1
Off-chip DRAM Size: 4 GiB Channels: 1 Width: 64-bit Data Rate: 3200 MT/s

VirtualMemory physical capacity: 8588881920 num_ppages: 2096895
VirtualMemory page size: 4096 log2_page_size: 12

CPU 0 runs /Users/brandon/Documents/CoursesWi22/CSE240C/Homework2/traces/cactusADM_1039B.trace.xz
CPU 0 Bimodal branch predictor
Basic BTB sets: 1024 ways: 8 indirect buffer size: 4096 RAS size: 64
Initialize SRRIP state
Heartbeat CPU 0 instructions: 10000004 cycles: 3647108 heartbeat IPC: 2.7419 cumulative IPC: 2.7419 (Simulation time: 0 hr 1 min 9 sec) 

Warmup complete CPU 0 instructions: 10000004 cycles: 3647108 (Simulation time: 0 hr 1 min 9 sec) 

Heartbeat CPU 0 instructions: 20000004 cycles: 13591256 heartbeat IPC: 1.00562 cumulative IPC: 1.00562 (Simulation time: 0 hr 3 min 15 sec) 
Heartbeat CPU 0 instructions: 30000000 cycles: 22714193 heartbeat IPC: 1.09614 cumulative IPC: 1.04893 (Simulation time: 0 hr 5 min 13 sec) 
Heartbeat CPU 0 instructions: 40000000 cycles: 32000728 heartbeat IPC: 1.07683 cumulative IPC: 1.05807 (Simulation time: 0 hr 7 min 8 sec) 
Heartbeat CPU 0 instructions: 50000004 cycles: 40647112 heartbeat IPC: 1.15655 cumulative IPC: 1.08108 (Simulation time: 0 hr 9 min 5 sec) 
Heartbeat CPU 0 instructions: 60000004 cycles: 46655838 heartbeat IPC: 1.66425 cumulative IPC: 1.16255 (Simulation time: 0 hr 10 min 41 sec) 
Heartbeat CPU 0 instructions: 70000002 cycles: 55398969 heartbeat IPC: 1.14375 cumulative IPC: 1.15938 (Simulation time: 0 hr 12 min 35 sec) 
Heartbeat CPU 0 instructions: 80000004 cycles: 63938498 heartbeat IPC: 1.17103 cumulative IPC: 1.16103 (Simulation time: 0 hr 14 min 30 sec) 
Heartbeat CPU 0 instructions: 90000004 cycles: 72464366 heartbeat IPC: 1.1729 cumulative IPC: 1.1625 (Simulation time: 0 hr 16 min 22 sec) 
Heartbeat CPU 0 instructions: 100000000 cycles: 78427469 heartbeat IPC: 1.67698 cumulative IPC: 1.20352 (Simulation time: 0 hr 17 min 57 sec) 
Heartbeat CPU 0 instructions: 110000003 cycles: 86862700 heartbeat IPC: 1.1855 cumulative IPC: 1.2017 (Simulation time: 0 hr 19 min 50 sec) 
Finished CPU 0 instructions: 100000004 cycles: 83215593 cumulative IPC: 1.2017 (Simulation time: 0 hr 19 min 50 sec) 

ChampSim completed all CPUs

Region of Interest Statistics

CPU 0 cumulative IPC: 1.2017 instructions: 100000004 cycles: 83215593
cpu0_DTLB TOTAL     ACCESS:   22816868  HIT:   20767016  MISS:    2049852
cpu0_DTLB LOAD      ACCESS:   18909327  HIT:   17475753  MISS:    1433574
cpu0_DTLB RFO       ACCESS:    3907541  HIT:    3291263  MISS:     616278
cpu0_DTLB PREFETCH  ACCESS:          0  HIT:          0  MISS:          0
cpu0_DTLB WRITEBACK ACCESS:          0  HIT:          0  MISS:          0
cpu0_DTLB TRANSLATION ACCESS:          0  HIT:          0  MISS:          0
cpu0_DTLB PREFETCH  REQUESTED:          0  ISSUED:          0  USEFUL:          0  USELESS:          0
cpu0_DTLB AVERAGE MISS LATENCY: 16.4604 cycles
cpu0_ITLB TOTAL     ACCESS:    1451305  HIT:    1451305  MISS:          0
cpu0_ITLB LOAD      ACCESS:    1451305  HIT:    1451305  MISS:          0
cpu0_ITLB RFO       ACCESS:          0  HIT:          0  MISS:          0
cpu0_ITLB PREFETCH  ACCESS:          0  HIT:          0  MISS:          0
cpu0_ITLB WRITEBACK ACCESS:          0  HIT:          0  MISS:          0
cpu0_ITLB TRANSLATION ACCESS:          0  HIT:          0  MISS:          0
cpu0_ITLB PREFETCH  REQUESTED:          0  ISSUED:          0  USEFUL:          0  USELESS:          0
cpu0_ITLB AVERAGE MISS LATENCY: nan cycles
cpu0_L1I TOTAL     ACCESS:    8114196  HIT:    8114193  MISS:          3
cpu0_L1I LOAD      ACCESS:    8114196  HIT:    8114193  MISS:          3
cpu0_L1I RFO       ACCESS:          0  HIT:          0  MISS:          0
cpu0_L1I PREFETCH  ACCESS:          0  HIT:          0  MISS:          0
cpu0_L1I WRITEBACK ACCESS:          0  HIT:          0  MISS:          0
cpu0_L1I TRANSLATION ACCESS:          0  HIT:          0  MISS:          0
cpu0_L1I PREFETCH  REQUESTED:          0  ISSUED:          0  USEFUL:          0  USELESS:          0
cpu0_L1I AVERAGE MISS LATENCY: 626.667 cycles
cpu0_STLB TOTAL     ACCESS:    2049852  HIT:    1130186  MISS:     919666
cpu0_STLB LOAD      ACCESS:    1433574  HIT:     835756  MISS:     597818
cpu0_STLB RFO       ACCESS:     616278  HIT:     294430  MISS:     321848
cpu0_STLB PREFETCH  ACCESS:          0  HIT:          0  MISS:          0
cpu0_STLB WRITEBACK ACCESS:          0  HIT:          0  MISS:          0
cpu0_STLB TRANSLATION ACCESS:          0  HIT:          0  MISS:          0
cpu0_STLB PREFETCH  REQUESTED:          0  ISSUED:          0  USEFUL:          0  USELESS:          0
cpu0_STLB AVERAGE MISS LATENCY: 16.4696 cycles
cpu0_L1D TOTAL     ACCESS:   37581269  HIT:   36257556  MISS:    1323713
cpu0_L1D LOAD      ACCESS:   25712865  HIT:   24660489  MISS:    1052376
cpu0_L1D RFO       ACCESS:   10949599  HIT:   10684228  MISS:     265371
cpu0_L1D PREFETCH  ACCESS:          0  HIT:          0  MISS:          0
cpu0_L1D WRITEBACK ACCESS:          0  HIT:          0  MISS:          0
cpu0_L1D TRANSLATION ACCESS:     918805  HIT:     912839  MISS:       5966
cpu0_L1D PREFETCH  REQUESTED:          0  ISSUED:          0  USEFUL:          0  USELESS:          0
cpu0_L1D AVERAGE MISS LATENCY: 299.068 cycles
cpu0_L2C TOTAL     ACCESS:    1592983  HIT:     694214  MISS:     898769
cpu0_L2C LOAD      ACCESS:    1052377  HIT:     419470  MISS:     632907
cpu0_L2C RFO       ACCESS:     265371  HIT:          0  MISS:     265371
cpu0_L2C PREFETCH  ACCESS:          0  HIT:          0  MISS:          0
cpu0_L2C WRITEBACK ACCESS:     269269  HIT:     269056  MISS:        213
cpu0_L2C TRANSLATION ACCESS:       5966  HIT:       5688  MISS:        278
cpu0_L2C PREFETCH  REQUESTED:          0  ISSUED:          0  USEFUL:          0  USELESS:          0
cpu0_L2C AVERAGE MISS LATENCY: 424.251 cycles
LLC TOTAL     ACCESS:    1165751  HIT:     345926  MISS:     819825
LLC LOAD      ACCESS:     632907  HIT:     166887  MISS:     466020
LLC RFO       ACCESS:     265371  HIT:      73006  MISS:     192365
LLC PREFETCH  ACCESS:          0  HIT:          0  MISS:          0
LLC WRITEBACK ACCESS:     267195  HIT:     106005  MISS:     161190
LLC TRANSLATION ACCESS:        278  HIT:         28  MISS:        250
LLC PREFETCH  REQUESTED:          0  ISSUED:          0  USEFUL:          0  USELESS:          0
LLC AVERAGE MISS LATENCY: 442.085 cycles
Insertion Distribution: 
	LOAD 42763 0 79212 394119 
	RFO 16756 0 18348 168542 
	PREF 0 0 0 0 
	WRITEBACK 0 0 0 164098 
	 0 0 54 238 
Total Prefetch Downgrades: 0

DRAM Statistics
 CHANNEL 0
 RQ ROW_BUFFER_HIT:       6755  ROW_BUFFER_MISS:     651850
 DBUS AVG_CONGESTED_CYCLE:    3.97642
 WQ ROW_BUFFER_HIT:      16368  ROW_BUFFER_MISS:     202764  FULL:        331


CPU 0 Branch Prediction Accuracy: 97.7479% MPKI: 0.04701 Average ROB Occupancy at Mispredict: 283.98
Branch type MPKI
BRANCH_DIRECT_JUMP: 0
BRANCH_INDIRECT: 0
BRANCH_CONDITIONAL: 0.04701
BRANCH_DIRECT_CALL: 0
BRANCH_INDIRECT_CALL: 0
BRANCH_RETURN: 0

