
*** ChampSim Multicore Out-of-Order Simulator ***

Warmup Instructions: 10000000
Simulation Instructions: 100000000
Number of CPUs: 1
Off-chip DRAM Size: 4 GiB Channels: 1 Width: 64-bit Data Rate: 3200 MT/s

VirtualMemory physical capacity: 8588881920 num_ppages: 2096895
VirtualMemory page size: 4096 log2_page_size: 12

CPU 0 runs /Users/brandon/Documents/CoursesWi22/CSE240C/Homework2/traces/gcc_13B.trace.xz
CPU 0 Bimodal branch predictor
Basic BTB sets: 1024 ways: 8 indirect buffer size: 4096 RAS size: 64
Initialize SRRIP state
Heartbeat CPU 0 instructions: 10000003 cycles: 2971512 heartbeat IPC: 3.36529 cumulative IPC: 3.36529 (Simulation time: 0 hr 0 min 51 sec) 

Warmup complete CPU 0 instructions: 10000003 cycles: 2971512 (Simulation time: 0 hr 0 min 51 sec) 

Heartbeat CPU 0 instructions: 20000003 cycles: 50004759 heartbeat IPC: 0.212616 cumulative IPC: 0.212616 (Simulation time: 0 hr 2 min 55 sec) 
Heartbeat CPU 0 instructions: 30000002 cycles: 102371078 heartbeat IPC: 0.190962 cumulative IPC: 0.201208 (Simulation time: 0 hr 5 min 12 sec) 
Heartbeat CPU 0 instructions: 40000004 cycles: 140080418 heartbeat IPC: 0.265186 cumulative IPC: 0.218804 (Simulation time: 0 hr 7 min 31 sec) 
Heartbeat CPU 0 instructions: 50000002 cycles: 158189122 heartbeat IPC: 0.552221 cumulative IPC: 0.257703 (Simulation time: 0 hr 8 min 12 sec) 
Heartbeat CPU 0 instructions: 60000003 cycles: 176187588 heartbeat IPC: 0.555603 cumulative IPC: 0.288657 (Simulation time: 0 hr 8 min 52 sec) 
Heartbeat CPU 0 instructions: 70000000 cycles: 194556038 heartbeat IPC: 0.544412 cumulative IPC: 0.313178 (Simulation time: 0 hr 9 min 32 sec) 
Heartbeat CPU 0 instructions: 80000002 cycles: 212664296 heartbeat IPC: 0.552234 cumulative IPC: 0.333822 (Simulation time: 0 hr 10 min 8 sec) 
Heartbeat CPU 0 instructions: 90000000 cycles: 230796962 heartbeat IPC: 0.551491 cumulative IPC: 0.351146 (Simulation time: 0 hr 10 min 45 sec) 
Heartbeat CPU 0 instructions: 100000000 cycles: 248589665 heartbeat IPC: 0.562028 cumulative IPC: 0.366422 (Simulation time: 0 hr 11 min 21 sec) 
Heartbeat CPU 0 instructions: 110000002 cycles: 273635543 heartbeat IPC: 0.399267 cumulative IPC: 0.369462 (Simulation time: 0 hr 12 min 7 sec) 
Finished CPU 0 instructions: 100000004 cycles: 270664032 cumulative IPC: 0.369462 (Simulation time: 0 hr 12 min 7 sec) 

ChampSim completed all CPUs

Region of Interest Statistics

CPU 0 cumulative IPC: 0.369462 instructions: 100000004 cycles: 270664032
cpu0_DTLB TOTAL     ACCESS:   19452520  HIT:   19350335  MISS:     102185
cpu0_DTLB LOAD      ACCESS:   14018061  HIT:   13930963  MISS:      87098
cpu0_DTLB RFO       ACCESS:    5434459  HIT:    5419372  MISS:      15087
cpu0_DTLB PREFETCH  ACCESS:          0  HIT:          0  MISS:          0
cpu0_DTLB WRITEBACK ACCESS:          0  HIT:          0  MISS:          0
cpu0_DTLB TRANSLATION ACCESS:          0  HIT:          0  MISS:          0
cpu0_DTLB PREFETCH  REQUESTED:          0  ISSUED:          0  USEFUL:          0  USELESS:          0
cpu0_DTLB AVERAGE MISS LATENCY: 26.8325 cycles
cpu0_ITLB TOTAL     ACCESS:   10352536  HIT:   10352475  MISS:         61
cpu0_ITLB LOAD      ACCESS:   10352536  HIT:   10352475  MISS:         61
cpu0_ITLB RFO       ACCESS:          0  HIT:          0  MISS:          0
cpu0_ITLB PREFETCH  ACCESS:          0  HIT:          0  MISS:          0
cpu0_ITLB WRITEBACK ACCESS:          0  HIT:          0  MISS:          0
cpu0_ITLB TRANSLATION ACCESS:          0  HIT:          0  MISS:          0
cpu0_ITLB PREFETCH  REQUESTED:          0  ISSUED:          0  USEFUL:          0  USELESS:          0
cpu0_ITLB AVERAGE MISS LATENCY: 143.836 cycles
cpu0_L1I TOTAL     ACCESS:    6565304  HIT:    6564932  MISS:        372
cpu0_L1I LOAD      ACCESS:    6565304  HIT:    6564932  MISS:        372
cpu0_L1I RFO       ACCESS:          0  HIT:          0  MISS:          0
cpu0_L1I PREFETCH  ACCESS:          0  HIT:          0  MISS:          0
cpu0_L1I WRITEBACK ACCESS:          0  HIT:          0  MISS:          0
cpu0_L1I TRANSLATION ACCESS:          0  HIT:          0  MISS:          0
cpu0_L1I PREFETCH  REQUESTED:          0  ISSUED:          0  USEFUL:          0  USELESS:          0
cpu0_L1I AVERAGE MISS LATENCY: 172.116 cycles
cpu0_STLB TOTAL     ACCESS:     102246  HIT:      33346  MISS:      68900
cpu0_STLB LOAD      ACCESS:      87159  HIT:      30290  MISS:      56869
cpu0_STLB RFO       ACCESS:      15087  HIT:       3056  MISS:      12031
cpu0_STLB PREFETCH  ACCESS:          0  HIT:          0  MISS:          0
cpu0_STLB WRITEBACK ACCESS:          0  HIT:          0  MISS:          0
cpu0_STLB TRANSLATION ACCESS:          0  HIT:          0  MISS:          0
cpu0_STLB PREFETCH  REQUESTED:          0  ISSUED:          0  USEFUL:          0  USELESS:          0
cpu0_STLB AVERAGE MISS LATENCY: 26.5605 cycles
cpu0_L1D TOTAL     ACCESS:   26266280  HIT:   24722526  MISS:    1543754
cpu0_L1D LOAD      ACCESS:   12774143  HIT:   11507453  MISS:    1266690
cpu0_L1D RFO       ACCESS:   13423421  HIT:   13147429  MISS:     275992
cpu0_L1D PREFETCH  ACCESS:          0  HIT:          0  MISS:          0
cpu0_L1D WRITEBACK ACCESS:          0  HIT:          0  MISS:          0
cpu0_L1D TRANSLATION ACCESS:      68716  HIT:      67644  MISS:       1072
cpu0_L1D PREFETCH  REQUESTED:          0  ISSUED:          0  USEFUL:          0  USELESS:          0
cpu0_L1D AVERAGE MISS LATENCY: 261.564 cycles
cpu0_L2C TOTAL     ACCESS:    1956977  HIT:     462211  MISS:    1494766
cpu0_L2C LOAD      ACCESS:    1267062  HIT:      46696  MISS:    1220366
cpu0_L2C RFO       ACCESS:     275992  HIT:       1817  MISS:     274175
cpu0_L2C PREFETCH  ACCESS:          0  HIT:          0  MISS:          0
cpu0_L2C WRITEBACK ACCESS:     412851  HIT:     412804  MISS:         47
cpu0_L2C TRANSLATION ACCESS:       1072  HIT:        894  MISS:        178
cpu0_L2C PREFETCH  REQUESTED:          0  ISSUED:          0  USEFUL:          0  USELESS:          0
cpu0_L2C AVERAGE MISS LATENCY: 258.783 cycles
LLC TOTAL     ACCESS:    1905194  HIT:     234105  MISS:    1671089
LLC LOAD      ACCESS:    1220366  HIT:     108595  MISS:    1111771
LLC RFO       ACCESS:     274174  HIT:      34047  MISS:     240127
LLC PREFETCH  ACCESS:          0  HIT:          0  MISS:          0
LLC WRITEBACK ACCESS:     410476  HIT:      91321  MISS:     319155
LLC TRANSLATION ACCESS:        178  HIT:        142  MISS:         36
LLC PREFETCH  REQUESTED:          0  ISSUED:          0  USEFUL:          0  USELESS:          0
LLC AVERAGE MISS LATENCY: 212.683 cycles
Insertion Distribution: 
	LOAD 35702 0 132307 1216082 
	RFO 6050 0 62743 331907 
	PREF 0 0 0 0 
	WRITEBACK 0 0 0 479268 
	 2 0 29 26 
Total Prefetch Downgrades: 0

DRAM Statistics
 CHANNEL 0
 RQ ROW_BUFFER_HIT:     209014  ROW_BUFFER_MISS:    1142828
 DBUS AVG_CONGESTED_CYCLE:    3.92735
 WQ ROW_BUFFER_HIT:      44802  ROW_BUFFER_MISS:     327122  FULL:     106166


CPU 0 Branch Prediction Accuracy: 87.437% MPKI: 28.6507 Average ROB Occupancy at Mispredict: 19.891
Branch type MPKI
BRANCH_DIRECT_JUMP: 0.0008
BRANCH_INDIRECT: 0.00403
BRANCH_CONDITIONAL: 28.6428
BRANCH_DIRECT_CALL: 0.00114
BRANCH_INDIRECT_CALL: 0.0008
BRANCH_RETURN: 0.00114

