
*** ChampSim Multicore Out-of-Order Simulator ***

Warmup Instructions: 10000000
Simulation Instructions: 100000000
Number of CPUs: 1
Off-chip DRAM Size: 4 GiB Channels: 1 Width: 64-bit Data Rate: 3200 MT/s

VirtualMemory physical capacity: 8588881920 num_ppages: 2096895
VirtualMemory page size: 4096 log2_page_size: 12

CPU 0 runs /Users/brandon/Documents/CoursesWi22/CSE240C/Homework2/traces/mcf_250B.trace.xz
CPU 0 Bimodal branch predictor
Basic BTB sets: 1024 ways: 8 indirect buffer size: 4096 RAS size: 64
Initialize SRRIP state
Heartbeat CPU 0 instructions: 10000001 cycles: 3834275 heartbeat IPC: 2.60806 cumulative IPC: 2.60806 (Simulation time: 0 hr 1 min 7 sec) 

Warmup complete CPU 0 instructions: 10000001 cycles: 3834275 (Simulation time: 0 hr 1 min 7 sec) 

Heartbeat CPU 0 instructions: 20000000 cycles: 146118581 heartbeat IPC: 0.0702818 cumulative IPC: 0.0702818 (Simulation time: 0 hr 4 min 39 sec) 
Heartbeat CPU 0 instructions: 30000000 cycles: 283508683 heartbeat IPC: 0.0727854 cumulative IPC: 0.0715117 (Simulation time: 0 hr 8 min 0 sec) 
Heartbeat CPU 0 instructions: 40000000 cycles: 429028981 heartbeat IPC: 0.0687189 cumulative IPC: 0.0705559 (Simulation time: 0 hr 11 min 32 sec) 
Heartbeat CPU 0 instructions: 50000000 cycles: 569431950 heartbeat IPC: 0.0712236 cumulative IPC: 0.0707216 (Simulation time: 0 hr 15 min 7 sec) 
Heartbeat CPU 0 instructions: 60000000 cycles: 709393600 heartbeat IPC: 0.0714481 cumulative IPC: 0.0708658 (Simulation time: 0 hr 18 min 42 sec) 
Heartbeat CPU 0 instructions: 70000000 cycles: 842323596 heartbeat IPC: 0.0752276 cumulative IPC: 0.0715573 (Simulation time: 0 hr 22 min 9 sec) 
Heartbeat CPU 0 instructions: 80000000 cycles: 984598124 heartbeat IPC: 0.0702867 cumulative IPC: 0.0713729 (Simulation time: 0 hr 25 min 47 sec) 
Heartbeat CPU 0 instructions: 90000000 cycles: 1106387526 heartbeat IPC: 0.082109 cumulative IPC: 0.0725589 (Simulation time: 0 hr 29 min 1 sec) 
Heartbeat CPU 0 instructions: 100000000 cycles: 1242174998 heartbeat IPC: 0.0736445 cumulative IPC: 0.0726779 (Simulation time: 0 hr 32 min 30 sec) 
Heartbeat CPU 0 instructions: 110000000 cycles: 1384597909 heartbeat IPC: 0.0702134 cumulative IPC: 0.0724237 (Simulation time: 0 hr 36 min 8 sec) 
Finished CPU 0 instructions: 100000000 cycles: 1380763635 cumulative IPC: 0.0724237 (Simulation time: 0 hr 36 min 8 sec) 

ChampSim completed all CPUs

Region of Interest Statistics

CPU 0 cumulative IPC: 0.0724237 instructions: 100000000 cycles: 1380763635
cpu0_DTLB TOTAL     ACCESS:   20765268  HIT:    2975002  MISS:   17790266
cpu0_DTLB LOAD      ACCESS:   20269140  HIT:    2534760  MISS:   17734380
cpu0_DTLB RFO       ACCESS:     496128  HIT:     440242  MISS:      55886
cpu0_DTLB PREFETCH  ACCESS:          0  HIT:          0  MISS:          0
cpu0_DTLB WRITEBACK ACCESS:          0  HIT:          0  MISS:          0
cpu0_DTLB TRANSLATION ACCESS:          0  HIT:          0  MISS:          0
cpu0_DTLB PREFETCH  REQUESTED:          0  ISSUED:          0  USEFUL:          0  USELESS:          0
cpu0_DTLB AVERAGE MISS LATENCY: 10.4756 cycles
cpu0_ITLB TOTAL     ACCESS:   11316083  HIT:   11316083  MISS:          0
cpu0_ITLB LOAD      ACCESS:   11316083  HIT:   11316083  MISS:          0
cpu0_ITLB RFO       ACCESS:          0  HIT:          0  MISS:          0
cpu0_ITLB PREFETCH  ACCESS:          0  HIT:          0  MISS:          0
cpu0_ITLB WRITEBACK ACCESS:          0  HIT:          0  MISS:          0
cpu0_ITLB TRANSLATION ACCESS:          0  HIT:          0  MISS:          0
cpu0_ITLB PREFETCH  REQUESTED:          0  ISSUED:          0  USEFUL:          0  USELESS:          0
cpu0_ITLB AVERAGE MISS LATENCY: nan cycles
cpu0_L1I TOTAL     ACCESS:          4  HIT:          4  MISS:          0
cpu0_L1I LOAD      ACCESS:          4  HIT:          4  MISS:          0
cpu0_L1I RFO       ACCESS:          0  HIT:          0  MISS:          0
cpu0_L1I PREFETCH  ACCESS:          0  HIT:          0  MISS:          0
cpu0_L1I WRITEBACK ACCESS:          0  HIT:          0  MISS:          0
cpu0_L1I TRANSLATION ACCESS:          0  HIT:          0  MISS:          0
cpu0_L1I PREFETCH  REQUESTED:          0  ISSUED:          0  USEFUL:          0  USELESS:          0
cpu0_L1I AVERAGE MISS LATENCY: nan cycles
cpu0_STLB TOTAL     ACCESS:   17790266  HIT:   17413112  MISS:     377154
cpu0_STLB LOAD      ACCESS:   17734380  HIT:   17359363  MISS:     375017
cpu0_STLB RFO       ACCESS:      55886  HIT:      53749  MISS:       2137
cpu0_STLB PREFETCH  ACCESS:          0  HIT:          0  MISS:          0
cpu0_STLB WRITEBACK ACCESS:          0  HIT:          0  MISS:          0
cpu0_STLB TRANSLATION ACCESS:          0  HIT:          0  MISS:          0
cpu0_STLB PREFETCH  REQUESTED:          0  ISSUED:          0  USEFUL:          0  USELESS:          0
cpu0_STLB AVERAGE MISS LATENCY: 69.5785 cycles
cpu0_L1D TOTAL     ACCESS:   21382241  HIT:    3438628  MISS:   17943613
cpu0_L1D LOAD      ACCESS:   20341414  HIT:    2557543  MISS:   17783871
cpu0_L1D RFO       ACCESS:     664701  HIT:     633046  MISS:      31655
cpu0_L1D PREFETCH  ACCESS:          0  HIT:          0  MISS:          0
cpu0_L1D WRITEBACK ACCESS:          0  HIT:          0  MISS:          0
cpu0_L1D TRANSLATION ACCESS:     376126  HIT:     248039  MISS:     128087
cpu0_L1D PREFETCH  REQUESTED:          0  ISSUED:          0  USEFUL:          0  USELESS:          0
cpu0_L1D AVERAGE MISS LATENCY: 227.461 cycles
cpu0_L2C TOTAL     ACCESS:   18302642  HIT:    5810260  MISS:   12492382
cpu0_L2C LOAD      ACCESS:   17783844  HIT:    5401327  MISS:   12382517
cpu0_L2C RFO       ACCESS:      31654  HIT:       9254  MISS:      22400
cpu0_L2C PREFETCH  ACCESS:          0  HIT:          0  MISS:          0
cpu0_L2C WRITEBACK ACCESS:     359057  HIT:     359049  MISS:          8
cpu0_L2C TRANSLATION ACCESS:     128087  HIT:      40630  MISS:      87457
cpu0_L2C PREFETCH  REQUESTED:          0  ISSUED:          0  USEFUL:          0  USELESS:          0
cpu0_L2C AVERAGE MISS LATENCY: 310.904 cycles
LLC TOTAL     ACCESS:   12783354  HIT:    5937364  MISS:    6845990
LLC LOAD      ACCESS:   12382517  HIT:    5659659  MISS:    6722858
LLC RFO       ACCESS:      22400  HIT:      13826  MISS:       8574
LLC PREFETCH  ACCESS:          0  HIT:          0  MISS:          0
LLC WRITEBACK ACCESS:     290980  HIT:     181167  MISS:     109813
LLC TRANSLATION ACCESS:      87457  HIT:      82712  MISS:       4745
LLC PREFETCH  REQUESTED:          0  ISSUED:          0  USEFUL:          0  USELESS:          0
LLC AVERAGE MISS LATENCY: 529.01 cycles
Insertion Distribution: 
	LOAD 126674 0 131667 7171680 
	RFO 2272 0 4132 5661 
	PREF 0 0 0 0 
	WRITEBACK 0 0 0 155389 
	 24 0 134 4992 
Total Prefetch Downgrades: 0

DRAM Statistics
 CHANNEL 0
 RQ ROW_BUFFER_HIT:       2811  ROW_BUFFER_MISS:    6733277
 DBUS AVG_CONGESTED_CYCLE:     3.9617
 WQ ROW_BUFFER_HIT:      10580  ROW_BUFFER_MISS:     143702  FULL:          0


CPU 0 Branch Prediction Accuracy: 91.6559% MPKI: 25.5287 Average ROB Occupancy at Mispredict: 24.4979
Branch type MPKI
BRANCH_DIRECT_JUMP: 2e-05
BRANCH_INDIRECT: 0
BRANCH_CONDITIONAL: 25.5287
BRANCH_DIRECT_CALL: 0
BRANCH_INDIRECT_CALL: 0
BRANCH_RETURN: 0

