
*** ChampSim Multicore Out-of-Order Simulator ***

Warmup Instructions: 10000000
Simulation Instructions: 100000000
Number of CPUs: 1
Off-chip DRAM Size: 4 GiB Channels: 1 Width: 64-bit Data Rate: 3200 MT/s

VirtualMemory physical capacity: 8588881920 num_ppages: 2096895
VirtualMemory page size: 4096 log2_page_size: 12

CPU 0 runs /Users/brandon/Documents/CoursesWi22/CSE240C/Homework2/traces/omnetpp_340B.trace.xz
CPU 0 Bimodal branch predictor
Basic BTB sets: 1024 ways: 8 indirect buffer size: 4096 RAS size: 64
Initialize SRRIP state
Heartbeat CPU 0 instructions: 10000002 cycles: 2500207 heartbeat IPC: 3.99967 cumulative IPC: 3.99967 (Simulation time: 0 hr 0 min 40 sec) 

Warmup complete CPU 0 instructions: 10000002 cycles: 2500207 (Simulation time: 0 hr 0 min 40 sec) 

Heartbeat CPU 0 instructions: 20000004 cycles: 27115572 heartbeat IPC: 0.40625 cumulative IPC: 0.40625 (Simulation time: 0 hr 1 min 58 sec) 
Heartbeat CPU 0 instructions: 30000002 cycles: 52069925 heartbeat IPC: 0.400732 cumulative IPC: 0.403472 (Simulation time: 0 hr 3 min 16 sec) 
Heartbeat CPU 0 instructions: 40000000 cycles: 76780008 heartbeat IPC: 0.404693 cumulative IPC: 0.403878 (Simulation time: 0 hr 4 min 33 sec) 
Heartbeat CPU 0 instructions: 50000002 cycles: 102220692 heartbeat IPC: 0.393071 cumulative IPC: 0.401121 (Simulation time: 0 hr 5 min 47 sec) 
Heartbeat CPU 0 instructions: 60000001 cycles: 128534879 heartbeat IPC: 0.380023 cumulative IPC: 0.396716 (Simulation time: 0 hr 7 min 11 sec) 
Heartbeat CPU 0 instructions: 70000002 cycles: 154384610 heartbeat IPC: 0.386851 cumulative IPC: 0.395037 (Simulation time: 0 hr 8 min 23 sec) 
Heartbeat CPU 0 instructions: 80000003 cycles: 180501032 heartbeat IPC: 0.382901 cumulative IPC: 0.393257 (Simulation time: 0 hr 9 min 48 sec) 
Heartbeat CPU 0 instructions: 90000000 cycles: 206992379 heartbeat IPC: 0.377482 cumulative IPC: 0.391213 (Simulation time: 0 hr 11 min 4 sec) 
Heartbeat CPU 0 instructions: 100000000 cycles: 232982045 heartbeat IPC: 0.384768 cumulative IPC: 0.390486 (Simulation time: 0 hr 12 min 29 sec) 
Heartbeat CPU 0 instructions: 110000000 cycles: 257984253 heartbeat IPC: 0.399965 cumulative IPC: 0.391414 (Simulation time: 0 hr 13 min 50 sec) 
Finished CPU 0 instructions: 100000000 cycles: 255484048 cumulative IPC: 0.391414 (Simulation time: 0 hr 13 min 50 sec) 

ChampSim completed all CPUs

Region of Interest Statistics

CPU 0 cumulative IPC: 0.391414 instructions: 100000000 cycles: 255484048
cpu0_DTLB TOTAL     ACCESS:   23849222  HIT:   21952118  MISS:    1897104
cpu0_DTLB LOAD      ACCESS:   13878821  HIT:   12297617  MISS:    1581204
cpu0_DTLB RFO       ACCESS:    9970401  HIT:    9654501  MISS:     315900
cpu0_DTLB PREFETCH  ACCESS:          0  HIT:          0  MISS:          0
cpu0_DTLB WRITEBACK ACCESS:          0  HIT:          0  MISS:          0
cpu0_DTLB TRANSLATION ACCESS:          0  HIT:          0  MISS:          0
cpu0_DTLB PREFETCH  REQUESTED:          0  ISSUED:          0  USEFUL:          0  USELESS:          0
cpu0_DTLB AVERAGE MISS LATENCY: 13.1251 cycles
cpu0_ITLB TOTAL     ACCESS:   11128510  HIT:   11093143  MISS:      35367
cpu0_ITLB LOAD      ACCESS:   11128510  HIT:   11093143  MISS:      35367
cpu0_ITLB RFO       ACCESS:          0  HIT:          0  MISS:          0
cpu0_ITLB PREFETCH  ACCESS:          0  HIT:          0  MISS:          0
cpu0_ITLB WRITEBACK ACCESS:          0  HIT:          0  MISS:          0
cpu0_ITLB TRANSLATION ACCESS:          0  HIT:          0  MISS:          0
cpu0_ITLB PREFETCH  REQUESTED:          0  ISSUED:          0  USEFUL:          0  USELESS:          0
cpu0_ITLB AVERAGE MISS LATENCY: 9.26061 cycles
cpu0_L1I TOTAL     ACCESS:    8347272  HIT:    8340922  MISS:       6350
cpu0_L1I LOAD      ACCESS:    8347272  HIT:    8340922  MISS:       6350
cpu0_L1I RFO       ACCESS:          0  HIT:          0  MISS:          0
cpu0_L1I PREFETCH  ACCESS:          0  HIT:          0  MISS:          0
cpu0_L1I WRITEBACK ACCESS:          0  HIT:          0  MISS:          0
cpu0_L1I TRANSLATION ACCESS:          0  HIT:          0  MISS:          0
cpu0_L1I PREFETCH  REQUESTED:          0  ISSUED:          0  USEFUL:          0  USELESS:          0
cpu0_L1I AVERAGE MISS LATENCY: 57.1153 cycles
cpu0_STLB TOTAL     ACCESS:    1932471  HIT:    1457276  MISS:     475195
cpu0_STLB LOAD      ACCESS:    1616571  HIT:    1262662  MISS:     353909
cpu0_STLB RFO       ACCESS:     315900  HIT:     194614  MISS:     121286
cpu0_STLB PREFETCH  ACCESS:          0  HIT:          0  MISS:          0
cpu0_STLB WRITEBACK ACCESS:          0  HIT:          0  MISS:          0
cpu0_STLB TRANSLATION ACCESS:          0  HIT:          0  MISS:          0
cpu0_STLB PREFETCH  REQUESTED:          0  ISSUED:          0  USEFUL:          0  USELESS:          0
cpu0_STLB AVERAGE MISS LATENCY: 16.0171 cycles
cpu0_L1D TOTAL     ACCESS:   31426325  HIT:   28928424  MISS:    2497901
cpu0_L1D LOAD      ACCESS:   15708249  HIT:   13525588  MISS:    2182661
cpu0_L1D RFO       ACCESS:   15277655  HIT:   14966918  MISS:     310737
cpu0_L1D PREFETCH  ACCESS:          0  HIT:          0  MISS:          0
cpu0_L1D WRITEBACK ACCESS:          0  HIT:          0  MISS:          0
cpu0_L1D TRANSLATION ACCESS:     440421  HIT:     435918  MISS:       4503
cpu0_L1D PREFETCH  REQUESTED:          0  ISSUED:          0  USEFUL:          0  USELESS:          0
cpu0_L1D AVERAGE MISS LATENCY: 143.601 cycles
cpu0_L2C TOTAL     ACCESS:    3581298  HIT:    1431211  MISS:    2150087
cpu0_L2C LOAD      ACCESS:    2188973  HIT:     331137  MISS:    1857836
cpu0_L2C RFO       ACCESS:     310737  HIT:      21999  MISS:     288738
cpu0_L2C PREFETCH  ACCESS:          0  HIT:          0  MISS:          0
cpu0_L2C WRITEBACK ACCESS:    1077085  HIT:    1074773  MISS:       2312
cpu0_L2C TRANSLATION ACCESS:       4503  HIT:       3302  MISS:       1201
cpu0_L2C PREFETCH  REQUESTED:          0  ISSUED:          0  USEFUL:          0  USELESS:          0
cpu0_L2C AVERAGE MISS LATENCY: 154.03 cycles
LLC TOTAL     ACCESS:    3079409  HIT:    1053996  MISS:    2025413
LLC LOAD      ACCESS:    1857835  HIT:     432457  MISS:    1425378
LLC RFO       ACCESS:     288737  HIT:      69646  MISS:     219091
LLC PREFETCH  ACCESS:          0  HIT:          0  MISS:          0
LLC WRITEBACK ACCESS:     931636  HIT:     550756  MISS:     380880
LLC TRANSLATION ACCESS:       1201  HIT:       1137  MISS:         64
LLC PREFETCH  REQUESTED:          0  ISSUED:          0  USEFUL:          0  USELESS:          0
LLC AVERAGE MISS LATENCY: 141.242 cycles
Insertion Distribution: 
	LOAD 145937 0 235114 1198387 
	RFO 48190 0 80249 113035 
	PREF 0 0 0 0 
	WRITEBACK 0 0 0 410993 
	 10 0 54 25 
Total Prefetch Downgrades: 0

DRAM Statistics
 CHANNEL 0
 RQ ROW_BUFFER_HIT:      93377  ROW_BUFFER_MISS:    1551044
 DBUS AVG_CONGESTED_CYCLE:    3.91735
 WQ ROW_BUFFER_HIT:     169628  ROW_BUFFER_MISS:     500372  FULL:          0


CPU 0 Branch Prediction Accuracy: 94.4212% MPKI: 13.4017 Average ROB Occupancy at Mispredict: 52.1514
Branch type MPKI
BRANCH_DIRECT_JUMP: 0.00017
BRANCH_INDIRECT: 0.04543
BRANCH_CONDITIONAL: 13.2857
BRANCH_DIRECT_CALL: 8e-05
BRANCH_INDIRECT_CALL: 0.04734
BRANCH_RETURN: 0.02301

