
*** ChampSim Multicore Out-of-Order Simulator ***

Warmup Instructions: 10000000
Simulation Instructions: 100000000
Number of CPUs: 1
Off-chip DRAM Size: 4 GiB Channels: 1 Width: 64-bit Data Rate: 3200 MT/s

VirtualMemory physical capacity: 8588881920 num_ppages: 2096895
VirtualMemory page size: 4096 log2_page_size: 12

CPU 0 runs /datasets/cs240c-wi22-a00-public/data/Assignment2/wrf_1650B.trace.xz
CPU 0 Bimodal branch predictor
Basic BTB sets: 1024 ways: 8 indirect buffer size: 4096 RAS size: 64
Initialize Hawkeye state
Heartbeat CPU 0 instructions: 10000001 cycles: 2500100 heartbeat IPC: 3.99984 cumulative IPC: 3.99984 (Simulation time: 0 hr 0 min 22 sec) 

Warmup complete CPU 0 instructions: 10000001 cycles: 2500100 (Simulation time: 0 hr 0 min 22 sec) 

Heartbeat CPU 0 instructions: 20000004 cycles: 12137577 heartbeat IPC: 1.03762 cumulative IPC: 1.03762 (Simulation time: 0 hr 1 min 14 sec) 
Heartbeat CPU 0 instructions: 30000000 cycles: 21774170 heartbeat IPC: 1.03771 cumulative IPC: 1.03766 (Simulation time: 0 hr 2 min 7 sec) 
Heartbeat CPU 0 instructions: 40000002 cycles: 31416863 heartbeat IPC: 1.03705 cumulative IPC: 1.03746 (Simulation time: 0 hr 2 min 59 sec) 
Heartbeat CPU 0 instructions: 50000000 cycles: 47920890 heartbeat IPC: 0.605913 cumulative IPC: 0.880654 (Simulation time: 0 hr 4 min 26 sec) 
Heartbeat CPU 0 instructions: 60000000 cycles: 60634743 heartbeat IPC: 0.786544 cumulative IPC: 0.860072 (Simulation time: 0 hr 6 min 0 sec) 
Heartbeat CPU 0 instructions: 70000002 cycles: 76676503 heartbeat IPC: 0.623373 cumulative IPC: 0.808883 (Simulation time: 0 hr 7 min 21 sec) 
Heartbeat CPU 0 instructions: 80000004 cycles: 92535207 heartbeat IPC: 0.630569 cumulative IPC: 0.777475 (Simulation time: 0 hr 8 min 41 sec) 
Heartbeat CPU 0 instructions: 90000002 cycles: 108420676 heartbeat IPC: 0.629506 cumulative IPC: 0.755283 (Simulation time: 0 hr 11 min 12 sec) 
Heartbeat CPU 0 instructions: 100000004 cycles: 128336708 heartbeat IPC: 0.502108 cumulative IPC: 0.715213 (Simulation time: 0 hr 14 min 29 sec) 
Heartbeat CPU 0 instructions: 110000004 cycles: 147057421 heartbeat IPC: 0.534168 cumulative IPC: 0.691767 (Simulation time: 0 hr 17 min 0 sec) 
Finished CPU 0 instructions: 100000003 cycles: 144557321 cumulative IPC: 0.691767 (Simulation time: 0 hr 17 min 0 sec) 

ChampSim completed all CPUs

Region of Interest Statistics

CPU 0 cumulative IPC: 0.691767 instructions: 100000003 cycles: 144557321
cpu0_DTLB TOTAL     ACCESS:   16104854  HIT:   16074094  MISS:      30760
cpu0_DTLB LOAD      ACCESS:   14689684  HIT:   14665667  MISS:      24017
cpu0_DTLB RFO       ACCESS:    1415170  HIT:    1408427  MISS:       6743
cpu0_DTLB PREFETCH  ACCESS:          0  HIT:          0  MISS:          0
cpu0_DTLB WRITEBACK ACCESS:          0  HIT:          0  MISS:          0
cpu0_DTLB TRANSLATION ACCESS:          0  HIT:          0  MISS:          0
cpu0_DTLB PREFETCH  REQUESTED:          0  ISSUED:          0  USEFUL:          0  USELESS:          0
cpu0_DTLB AVERAGE MISS LATENCY: 146.113 cycles
cpu0_ITLB TOTAL     ACCESS:    6815963  HIT:    6815936  MISS:         27
cpu0_ITLB LOAD      ACCESS:    6815963  HIT:    6815936  MISS:         27
cpu0_ITLB RFO       ACCESS:          0  HIT:          0  MISS:          0
cpu0_ITLB PREFETCH  ACCESS:          0  HIT:          0  MISS:          0
cpu0_ITLB WRITEBACK ACCESS:          0  HIT:          0  MISS:          0
cpu0_ITLB TRANSLATION ACCESS:          0  HIT:          0  MISS:          0
cpu0_ITLB PREFETCH  REQUESTED:          0  ISSUED:          0  USEFUL:          0  USELESS:          0
cpu0_ITLB AVERAGE MISS LATENCY: 240.519 cycles
cpu0_L1I TOTAL     ACCESS:    1672707  HIT:    1672163  MISS:        544
cpu0_L1I LOAD      ACCESS:    1672707  HIT:    1672163  MISS:        544
cpu0_L1I RFO       ACCESS:          0  HIT:          0  MISS:          0
cpu0_L1I PREFETCH  ACCESS:          0  HIT:          0  MISS:          0
cpu0_L1I WRITEBACK ACCESS:          0  HIT:          0  MISS:          0
cpu0_L1I TRANSLATION ACCESS:          0  HIT:          0  MISS:          0
cpu0_L1I PREFETCH  REQUESTED:          0  ISSUED:          0  USEFUL:          0  USELESS:          0
cpu0_L1I AVERAGE MISS LATENCY: 380.092 cycles
cpu0_STLB TOTAL     ACCESS:      30787  HIT:      16557  MISS:      14230
cpu0_STLB LOAD      ACCESS:      24044  HIT:      13004  MISS:      11040
cpu0_STLB RFO       ACCESS:       6743  HIT:       3553  MISS:       3190
cpu0_STLB PREFETCH  ACCESS:          0  HIT:          0  MISS:          0
cpu0_STLB WRITEBACK ACCESS:          0  HIT:          0  MISS:          0
cpu0_STLB TRANSLATION ACCESS:          0  HIT:          0  MISS:          0
cpu0_STLB PREFETCH  REQUESTED:          0  ISSUED:          0  USEFUL:          0  USELESS:          0
cpu0_STLB AVERAGE MISS LATENCY: 296.827 cycles
cpu0_L1D TOTAL     ACCESS:   14578896  HIT:   13546722  MISS:    1032174
cpu0_L1D LOAD      ACCESS:   12290865  HIT:   11473376  MISS:     817489
cpu0_L1D RFO       ACCESS:    2275176  HIT:    2061064  MISS:     214112
cpu0_L1D PREFETCH  ACCESS:          0  HIT:          0  MISS:          0
cpu0_L1D WRITEBACK ACCESS:          0  HIT:          0  MISS:          0
cpu0_L1D TRANSLATION ACCESS:      12855  HIT:      12282  MISS:        573
cpu0_L1D PREFETCH  REQUESTED:          0  ISSUED:          0  USEFUL:          0  USELESS:          0
cpu0_L1D AVERAGE MISS LATENCY: 237.156 cycles
cpu0_L2C TOTAL     ACCESS:    1279104  HIT:     490262  MISS:     788842
cpu0_L2C LOAD      ACCESS:     818016  HIT:     229609  MISS:     588407
cpu0_L2C RFO       ACCESS:     214108  HIT:      13800  MISS:     200308
cpu0_L2C PREFETCH  ACCESS:          0  HIT:          0  MISS:          0
cpu0_L2C WRITEBACK ACCESS:     246407  HIT:     246324  MISS:         83
cpu0_L2C TRANSLATION ACCESS:        573  HIT:        529  MISS:         44
cpu0_L2C PREFETCH  REQUESTED:          0  ISSUED:          0  USEFUL:          0  USELESS:          0
cpu0_L2C AVERAGE MISS LATENCY: 296.164 cycles
LLC TOTAL     ACCESS:    1004542  HIT:     109734  MISS:     894808
LLC LOAD      ACCESS:     588405  HIT:      23967  MISS:     564438
LLC RFO       ACCESS:     200308  HIT:         60  MISS:     200248
LLC PREFETCH  ACCESS:          0  HIT:          0  MISS:          0
LLC WRITEBACK ACCESS:     215785  HIT:      85697  MISS:     130088
LLC TRANSLATION ACCESS:         44  HIT:         10  MISS:         34
LLC PREFETCH  REQUESTED:          0  ISSUED:          0  USEFUL:          0  USELESS:          0
LLC AVERAGE MISS LATENCY: 242.58 cycles
OPTgen accesses: 12591
OPTgen hits: 1397
OPTgen hit rate: 11.0952



DRAM Statistics
 CHANNEL 0
 RQ ROW_BUFFER_HIT:      25902  ROW_BUFFER_MISS:     738804
 DBUS AVG_CONGESTED_CYCLE:    3.93274
 WQ ROW_BUFFER_HIT:      35771  ROW_BUFFER_MISS:     174991  FULL:          0


CPU 0 Branch Prediction Accuracy: 83.2596% MPKI: 18.9931 Average ROB Occupancy at Mispredict: 253.487
Branch type MPKI
BRANCH_DIRECT_JUMP: 0.0005
BRANCH_INDIRECT: 0
BRANCH_CONDITIONAL: 18.9921
BRANCH_DIRECT_CALL: 0.00023
BRANCH_INDIRECT_CALL: 0
BRANCH_RETURN: 0.00022

