
*** ChampSim Multicore Out-of-Order Simulator ***

Warmup Instructions: 10000000
Simulation Instructions: 100000000
Number of CPUs: 1
Off-chip DRAM Size: 4 GiB Channels: 1 Width: 64-bit Data Rate: 3200 MT/s

VirtualMemory physical capacity: 8588881920 num_ppages: 2096895
VirtualMemory page size: 4096 log2_page_size: 12

CPU 0 runs /datasets/cs240c-wi22-a00-public/data/Assignment2/hmmer_7B.trace.xz
CPU 0 Bimodal branch predictor
Basic BTB sets: 1024 ways: 8 indirect buffer size: 4096 RAS size: 64
Initialize SRRIP state
Heartbeat CPU 0 instructions: 10000004 cycles: 3986065 heartbeat IPC: 2.50874 cumulative IPC: 2.50874 (Simulation time: 0 hr 0 min 52 sec) 

Warmup complete CPU 0 instructions: 10000004 cycles: 3986065 (Simulation time: 0 hr 0 min 52 sec) 

Heartbeat CPU 0 instructions: 20000004 cycles: 9224794 heartbeat IPC: 1.90886 cumulative IPC: 1.90886 (Simulation time: 0 hr 2 min 0 sec) 
Heartbeat CPU 0 instructions: 30000001 cycles: 13952415 heartbeat IPC: 2.11523 cumulative IPC: 2.00675 (Simulation time: 0 hr 3 min 6 sec) 
Heartbeat CPU 0 instructions: 40000001 cycles: 18472005 heartbeat IPC: 2.21259 cumulative IPC: 2.07097 (Simulation time: 0 hr 4 min 13 sec) 
Heartbeat CPU 0 instructions: 50000000 cycles: 23648163 heartbeat IPC: 1.93193 cumulative IPC: 2.03437 (Simulation time: 0 hr 5 min 21 sec) 
Heartbeat CPU 0 instructions: 60000000 cycles: 27974336 heartbeat IPC: 2.31151 cumulative IPC: 2.08435 (Simulation time: 0 hr 6 min 32 sec) 
Heartbeat CPU 0 instructions: 70000003 cycles: 32296655 heartbeat IPC: 2.31357 cumulative IPC: 2.11935 (Simulation time: 0 hr 7 min 44 sec) 
Heartbeat CPU 0 instructions: 80000001 cycles: 36606372 heartbeat IPC: 2.32034 cumulative IPC: 2.1459 (Simulation time: 0 hr 8 min 55 sec) 
Heartbeat CPU 0 instructions: 90000004 cycles: 40925817 heartbeat IPC: 2.31511 cumulative IPC: 2.16569 (Simulation time: 0 hr 10 min 7 sec) 
Heartbeat CPU 0 instructions: 100000002 cycles: 45244881 heartbeat IPC: 2.31532 cumulative IPC: 2.18135 (Simulation time: 0 hr 11 min 18 sec) 
Heartbeat CPU 0 instructions: 110000001 cycles: 49572770 heartbeat IPC: 2.3106 cumulative IPC: 2.19362 (Simulation time: 0 hr 12 min 32 sec) 
Finished CPU 0 instructions: 100000002 cycles: 45586706 cumulative IPC: 2.19362 (Simulation time: 0 hr 12 min 32 sec) 

ChampSim completed all CPUs

Region of Interest Statistics

CPU 0 cumulative IPC: 2.19362 instructions: 100000002 cycles: 45586706
cpu0_DTLB TOTAL     ACCESS:   40544264  HIT:   40530111  MISS:      14153
cpu0_DTLB LOAD      ACCESS:   32389405  HIT:   32381691  MISS:       7714
cpu0_DTLB RFO       ACCESS:    8154859  HIT:    8148420  MISS:       6439
cpu0_DTLB PREFETCH  ACCESS:          0  HIT:          0  MISS:          0
cpu0_DTLB WRITEBACK ACCESS:          0  HIT:          0  MISS:          0
cpu0_DTLB TRANSLATION ACCESS:          0  HIT:          0  MISS:          0
cpu0_DTLB PREFETCH  REQUESTED:          0  ISSUED:          0  USEFUL:          0  USELESS:          0
cpu0_DTLB AVERAGE MISS LATENCY: 14.2747 cycles
cpu0_ITLB TOTAL     ACCESS:     799340  HIT:     799268  MISS:         72
cpu0_ITLB LOAD      ACCESS:     799340  HIT:     799268  MISS:         72
cpu0_ITLB RFO       ACCESS:          0  HIT:          0  MISS:          0
cpu0_ITLB PREFETCH  ACCESS:          0  HIT:          0  MISS:          0
cpu0_ITLB WRITEBACK ACCESS:          0  HIT:          0  MISS:          0
cpu0_ITLB TRANSLATION ACCESS:          0  HIT:          0  MISS:          0
cpu0_ITLB PREFETCH  REQUESTED:          0  ISSUED:          0  USEFUL:          0  USELESS:          0
cpu0_ITLB AVERAGE MISS LATENCY: 21 cycles
cpu0_L1I TOTAL     ACCESS:      62186  HIT:      62081  MISS:        105
cpu0_L1I LOAD      ACCESS:      62186  HIT:      62081  MISS:        105
cpu0_L1I RFO       ACCESS:          0  HIT:          0  MISS:          0
cpu0_L1I PREFETCH  ACCESS:          0  HIT:          0  MISS:          0
cpu0_L1I WRITEBACK ACCESS:          0  HIT:          0  MISS:          0
cpu0_L1I TRANSLATION ACCESS:          0  HIT:          0  MISS:          0
cpu0_L1I PREFETCH  REQUESTED:          0  ISSUED:          0  USEFUL:          0  USELESS:          0
cpu0_L1I AVERAGE MISS LATENCY: 104.267 cycles
cpu0_STLB TOTAL     ACCESS:      14225  HIT:      13770  MISS:        455
cpu0_STLB LOAD      ACCESS:       7786  HIT:       7778  MISS:          8
cpu0_STLB RFO       ACCESS:       6439  HIT:       5992  MISS:        447
cpu0_STLB PREFETCH  ACCESS:          0  HIT:          0  MISS:          0
cpu0_STLB WRITEBACK ACCESS:          0  HIT:          0  MISS:          0
cpu0_STLB TRANSLATION ACCESS:          0  HIT:          0  MISS:          0
cpu0_STLB PREFETCH  REQUESTED:          0  ISSUED:          0  USEFUL:          0  USELESS:          0
cpu0_STLB AVERAGE MISS LATENCY: 165.767 cycles
cpu0_L1D TOTAL     ACCESS:   33515251  HIT:   33045132  MISS:     470119
cpu0_L1D LOAD      ACCESS:   28672086  HIT:   28510698  MISS:     161388
cpu0_L1D RFO       ACCESS:    4842711  HIT:    4534003  MISS:     308708
cpu0_L1D PREFETCH  ACCESS:          0  HIT:          0  MISS:          0
cpu0_L1D WRITEBACK ACCESS:          0  HIT:          0  MISS:          0
cpu0_L1D TRANSLATION ACCESS:        454  HIT:        431  MISS:         23
cpu0_L1D PREFETCH  REQUESTED:          0  ISSUED:          0  USEFUL:          0  USELESS:          0
cpu0_L1D AVERAGE MISS LATENCY: 233.48 cycles
cpu0_L2C TOTAL     ACCESS:     777359  HIT:     472434  MISS:     304925
cpu0_L2C LOAD      ACCESS:     161493  HIT:     149257  MISS:      12236
cpu0_L2C RFO       ACCESS:     308708  HIT:      16074  MISS:     292634
cpu0_L2C PREFETCH  ACCESS:          0  HIT:          0  MISS:          0
cpu0_L2C WRITEBACK ACCESS:     307135  HIT:     307088  MISS:         47
cpu0_L2C TRANSLATION ACCESS:         23  HIT:         15  MISS:          8
cpu0_L2C PREFETCH  REQUESTED:          0  ISSUED:          0  USEFUL:          0  USELESS:          0
cpu0_L2C AVERAGE MISS LATENCY: 343.027 cycles
LLC TOTAL     ACCESS:     596530  HIT:     449898  MISS:     146632
LLC LOAD      ACCESS:      12235  HIT:      10923  MISS:       1312
LLC RFO       ACCESS:     292633  HIT:     212381  MISS:      80252
LLC PREFETCH  ACCESS:          0  HIT:          0  MISS:          0
LLC WRITEBACK ACCESS:     291654  HIT:     226587  MISS:      65067
LLC TRANSLATION ACCESS:          8  HIT:          7  MISS:          1
LLC PREFETCH  REQUESTED:          0  ISSUED:          0  USEFUL:          0  USELESS:          0
LLC AVERAGE MISS LATENCY: 669.517 cycles
Insertion Distribution: 
	LOAD 537 0 3281 46 
	RFO 3060 0 30292 77619 
	PREF 0 0 0 0 
	WRITEBACK 0 0 0 65918 
	 0 0 13 0 
Total Prefetch Downgrades: 0

DRAM Statistics
 CHANNEL 0
 RQ ROW_BUFFER_HIT:       1510  ROW_BUFFER_MISS:      80053
 DBUS AVG_CONGESTED_CYCLE:    3.99391
 WQ ROW_BUFFER_HIT:       4240  ROW_BUFFER_MISS:      73097  FULL:      18330


CPU 0 Branch Prediction Accuracy: 98.9368% MPKI: 0.40856 Average ROB Occupancy at Mispredict: 252.329
Branch type MPKI
BRANCH_DIRECT_JUMP: 0.00016
BRANCH_INDIRECT: 0.00157
BRANCH_CONDITIONAL: 0.40659
BRANCH_DIRECT_CALL: 9e-05
BRANCH_INDIRECT_CALL: 3e-05
BRANCH_RETURN: 0.00012

