
*** ChampSim Multicore Out-of-Order Simulator ***

Warmup Instructions: 10000000
Simulation Instructions: 100000000
Number of CPUs: 1
Off-chip DRAM Size: 4 GiB Channels: 1 Width: 64-bit Data Rate: 3200 MT/s

VirtualMemory physical capacity: 8588881920 num_ppages: 2096895
VirtualMemory page size: 4096 log2_page_size: 12

CPU 0 runs /datasets/cs240c-wi22-a00-public/data/Assignment2/leslie3d_1116B.trace.xz
CPU 0 Bimodal branch predictor
Basic BTB sets: 1024 ways: 8 indirect buffer size: 4096 RAS size: 64
Initialize SRRIP state
Heartbeat CPU 0 instructions: 10000000 cycles: 3692429 heartbeat IPC: 2.70824 cumulative IPC: 2.70824 (Simulation time: 0 hr 0 min 57 sec) 

Warmup complete CPU 0 instructions: 10000005 cycles: 3692430 (Simulation time: 0 hr 0 min 57 sec) 

Heartbeat CPU 0 instructions: 20000000 cycles: 14158948 heartbeat IPC: 0.955427 cumulative IPC: 0.955427 (Simulation time: 0 hr 2 min 38 sec) 
Heartbeat CPU 0 instructions: 30000004 cycles: 25605520 heartbeat IPC: 0.873624 cumulative IPC: 0.912696 (Simulation time: 0 hr 4 min 23 sec) 
Heartbeat CPU 0 instructions: 40000003 cycles: 38856689 heartbeat IPC: 0.75465 cumulative IPC: 0.853139 (Simulation time: 0 hr 6 min 17 sec) 
Heartbeat CPU 0 instructions: 50000000 cycles: 59426651 heartbeat IPC: 0.486146 cumulative IPC: 0.717692 (Simulation time: 0 hr 8 min 47 sec) 
Heartbeat CPU 0 instructions: 60000001 cycles: 109918790 heartbeat IPC: 0.198051 cumulative IPC: 0.470693 (Simulation time: 0 hr 13 min 51 sec) 
Heartbeat CPU 0 instructions: 70000000 cycles: 127194046 heartbeat IPC: 0.578863 cumulative IPC: 0.485824 (Simulation time: 0 hr 16 min 17 sec) 
Heartbeat CPU 0 instructions: 80000001 cycles: 141091870 heartbeat IPC: 0.719537 cumulative IPC: 0.509463 (Simulation time: 0 hr 18 min 24 sec) 
Heartbeat CPU 0 instructions: 90000004 cycles: 155210664 heartbeat IPC: 0.708276 cumulative IPC: 0.527989 (Simulation time: 0 hr 20 min 26 sec) 
Heartbeat CPU 0 instructions: 100000002 cycles: 169005309 heartbeat IPC: 0.724919 cumulative IPC: 0.544422 (Simulation time: 0 hr 22 min 27 sec) 
Heartbeat CPU 0 instructions: 110000001 cycles: 192034461 heartbeat IPC: 0.434232 cumulative IPC: 0.530949 (Simulation time: 0 hr 25 min 5 sec) 
Finished CPU 0 instructions: 100000000 cycles: 188342033 cumulative IPC: 0.530949 (Simulation time: 0 hr 25 min 5 sec) 

ChampSim completed all CPUs

Region of Interest Statistics

CPU 0 cumulative IPC: 0.530949 instructions: 100000000 cycles: 188342033
cpu0_DTLB TOTAL     ACCESS:   25792437  HIT:   25726711  MISS:      65726
cpu0_DTLB LOAD      ACCESS:   21169087  HIT:   21117401  MISS:      51686
cpu0_DTLB RFO       ACCESS:    4623350  HIT:    4609310  MISS:      14040
cpu0_DTLB PREFETCH  ACCESS:          0  HIT:          0  MISS:          0
cpu0_DTLB WRITEBACK ACCESS:          0  HIT:          0  MISS:          0
cpu0_DTLB TRANSLATION ACCESS:          0  HIT:          0  MISS:          0
cpu0_DTLB PREFETCH  REQUESTED:          0  ISSUED:          0  USEFUL:          0  USELESS:          0
cpu0_DTLB AVERAGE MISS LATENCY: 80.4644 cycles
cpu0_ITLB TOTAL     ACCESS:    2854397  HIT:    2854379  MISS:         18
cpu0_ITLB LOAD      ACCESS:    2854397  HIT:    2854379  MISS:         18
cpu0_ITLB RFO       ACCESS:          0  HIT:          0  MISS:          0
cpu0_ITLB PREFETCH  ACCESS:          0  HIT:          0  MISS:          0
cpu0_ITLB WRITEBACK ACCESS:          0  HIT:          0  MISS:          0
cpu0_ITLB TRANSLATION ACCESS:          0  HIT:          0  MISS:          0
cpu0_ITLB PREFETCH  REQUESTED:          0  ISSUED:          0  USEFUL:          0  USELESS:          0
cpu0_ITLB AVERAGE MISS LATENCY: 429.333 cycles
cpu0_L1I TOTAL     ACCESS:    1779135  HIT:    1778663  MISS:        472
cpu0_L1I LOAD      ACCESS:    1779135  HIT:    1778663  MISS:        472
cpu0_L1I RFO       ACCESS:          0  HIT:          0  MISS:          0
cpu0_L1I PREFETCH  ACCESS:          0  HIT:          0  MISS:          0
cpu0_L1I WRITEBACK ACCESS:          0  HIT:          0  MISS:          0
cpu0_L1I TRANSLATION ACCESS:          0  HIT:          0  MISS:          0
cpu0_L1I PREFETCH  REQUESTED:          0  ISSUED:          0  USEFUL:          0  USELESS:          0
cpu0_L1I AVERAGE MISS LATENCY: 383.481 cycles
cpu0_STLB TOTAL     ACCESS:      65744  HIT:      34120  MISS:      31624
cpu0_STLB LOAD      ACCESS:      51704  HIT:      28238  MISS:      23466
cpu0_STLB RFO       ACCESS:      14040  HIT:       5882  MISS:       8158
cpu0_STLB PREFETCH  ACCESS:          0  HIT:          0  MISS:          0
cpu0_STLB WRITEBACK ACCESS:          0  HIT:          0  MISS:          0
cpu0_STLB TRANSLATION ACCESS:          0  HIT:          0  MISS:          0
cpu0_STLB PREFETCH  REQUESTED:          0  ISSUED:          0  USEFUL:          0  USELESS:          0
cpu0_STLB AVERAGE MISS LATENCY: 148.754 cycles
cpu0_L1D TOTAL     ACCESS:   24461225  HIT:   21051026  MISS:    3410199
cpu0_L1D LOAD      ACCESS:   16307503  HIT:   13690295  MISS:    2617208
cpu0_L1D RFO       ACCESS:    8124389  HIT:    7335039  MISS:     789350
cpu0_L1D PREFETCH  ACCESS:          0  HIT:          0  MISS:          0
cpu0_L1D WRITEBACK ACCESS:          0  HIT:          0  MISS:          0
cpu0_L1D TRANSLATION ACCESS:      29333  HIT:      25692  MISS:       3641
cpu0_L1D PREFETCH  REQUESTED:          0  ISSUED:          0  USEFUL:          0  USELESS:          0
cpu0_L1D AVERAGE MISS LATENCY: 522.397 cycles
cpu0_L2C TOTAL     ACCESS:    4455117  HIT:    1718357  MISS:    2736760
cpu0_L2C LOAD      ACCESS:    2617634  HIT:     507627  MISS:    2110007
cpu0_L2C RFO       ACCESS:     789294  HIT:     162814  MISS:     626480
cpu0_L2C PREFETCH  ACCESS:          0  HIT:          0  MISS:          0
cpu0_L2C WRITEBACK ACCESS:    1044548  HIT:    1044373  MISS:        175
cpu0_L2C TRANSLATION ACCESS:       3641  HIT:       3543  MISS:         98
cpu0_L2C PREFETCH  REQUESTED:          0  ISSUED:          0  USEFUL:          0  USELESS:          0
cpu0_L2C AVERAGE MISS LATENCY: 637.273 cycles
LLC TOTAL     ACCESS:    3497298  HIT:     634778  MISS:    2862520
LLC LOAD      ACCESS:    2110007  HIT:     365348  MISS:    1744659
LLC RFO       ACCESS:     626480  HIT:     123157  MISS:     503323
LLC PREFETCH  ACCESS:          0  HIT:          0  MISS:          0
LLC WRITEBACK ACCESS:     760713  HIT:     146214  MISS:     614499
LLC TRANSLATION ACCESS:         98  HIT:         59  MISS:         39
LLC PREFETCH  REQUESTED:          0  ISSUED:          0  USEFUL:          0  USELESS:          0
LLC AVERAGE MISS LATENCY: 589.165 cycles
Insertion Distribution: 
	LOAD 89429 0 0 188661 1579306 
	RFO 0 0 0 18900 510825 
	PREF 0 0 0 0 0 
	WRITEBACK 0 0 0 0 634005 
	 0 0 0 36 18 
Total Prefetch Downgrades: 0

DRAM Statistics
 CHANNEL 0
 RQ ROW_BUFFER_HIT:     211270  ROW_BUFFER_MISS:    2036536
 DBUS AVG_CONGESTED_CYCLE:    3.96252
 WQ ROW_BUFFER_HIT:      62739  ROW_BUFFER_MISS:     592500  FULL:      27567


CPU 0 Branch Prediction Accuracy: 96.8713% MPKI: 1.55303 Average ROB Occupancy at Mispredict: 299.456
Branch type MPKI
BRANCH_DIRECT_JUMP: 0.00018
BRANCH_INDIRECT: 0
BRANCH_CONDITIONAL: 1.55065
BRANCH_DIRECT_CALL: 0.00113
BRANCH_INDIRECT_CALL: 0
BRANCH_RETURN: 0.00107

