
*** ChampSim Multicore Out-of-Order Simulator ***

Warmup Instructions: 10000000
Simulation Instructions: 100000000
Number of CPUs: 1
Off-chip DRAM Size: 4 GiB Channels: 1 Width: 64-bit Data Rate: 3200 MT/s

VirtualMemory physical capacity: 8588881920 num_ppages: 2096895
VirtualMemory page size: 4096 log2_page_size: 12

CPU 0 runs /datasets/cs240c-wi22-a00-public/data/Assignment2/mcf_46B.trace.xz
CPU 0 Bimodal branch predictor
Basic BTB sets: 1024 ways: 8 indirect buffer size: 4096 RAS size: 64
Initialize SRRIP state
Heartbeat CPU 0 instructions: 10000002 cycles: 3434384 heartbeat IPC: 2.91173 cumulative IPC: 2.91173 (Simulation time: 0 hr 0 min 47 sec) 

Warmup complete CPU 0 instructions: 10000002 cycles: 3434384 (Simulation time: 0 hr 0 min 47 sec) 

Heartbeat CPU 0 instructions: 20000001 cycles: 106853142 heartbeat IPC: 0.0966942 cumulative IPC: 0.0966942 (Simulation time: 0 hr 3 min 57 sec) 
Heartbeat CPU 0 instructions: 30000004 cycles: 208650954 heartbeat IPC: 0.098234 cumulative IPC: 0.097458 (Simulation time: 0 hr 7 min 10 sec) 
Heartbeat CPU 0 instructions: 40000004 cycles: 312369361 heartbeat IPC: 0.0964149 cumulative IPC: 0.0971078 (Simulation time: 0 hr 10 min 28 sec) 
Heartbeat CPU 0 instructions: 50000003 cycles: 413164296 heartbeat IPC: 0.0992113 cumulative IPC: 0.0976253 (Simulation time: 0 hr 13 min 42 sec) 
Heartbeat CPU 0 instructions: 60000000 cycles: 519704524 heartbeat IPC: 0.0938612 cumulative IPC: 0.0968485 (Simulation time: 0 hr 17 min 4 sec) 
Heartbeat CPU 0 instructions: 70000004 cycles: 626524078 heartbeat IPC: 0.0936159 cumulative IPC: 0.0962943 (Simulation time: 0 hr 20 min 30 sec) 
Heartbeat CPU 0 instructions: 80000003 cycles: 730622304 heartbeat IPC: 0.0960631 cumulative IPC: 0.0962612 (Simulation time: 0 hr 23 min 51 sec) 
Heartbeat CPU 0 instructions: 90000001 cycles: 834449569 heartbeat IPC: 0.0963138 cumulative IPC: 0.0962678 (Simulation time: 0 hr 27 min 11 sec) 
Heartbeat CPU 0 instructions: 100000001 cycles: 938885173 heartbeat IPC: 0.0957528 cumulative IPC: 0.0962103 (Simulation time: 0 hr 30 min 37 sec) 
Heartbeat CPU 0 instructions: 110000002 cycles: 1036577720 heartbeat IPC: 0.102362 cumulative IPC: 0.096792 (Simulation time: 0 hr 33 min 49 sec) 
Finished CPU 0 instructions: 100000000 cycles: 1033143336 cumulative IPC: 0.096792 (Simulation time: 0 hr 33 min 49 sec) 

ChampSim completed all CPUs

Region of Interest Statistics

CPU 0 cumulative IPC: 0.096792 instructions: 100000000 cycles: 1033143336
cpu0_DTLB TOTAL     ACCESS:   23830668  HIT:   14562172  MISS:    9268496
cpu0_DTLB LOAD      ACCESS:   20099955  HIT:   11359223  MISS:    8740732
cpu0_DTLB RFO       ACCESS:    3730713  HIT:    3202949  MISS:     527764
cpu0_DTLB PREFETCH  ACCESS:          0  HIT:          0  MISS:          0
cpu0_DTLB WRITEBACK ACCESS:          0  HIT:          0  MISS:          0
cpu0_DTLB TRANSLATION ACCESS:          0  HIT:          0  MISS:          0
cpu0_DTLB PREFETCH  REQUESTED:          0  ISSUED:          0  USEFUL:          0  USELESS:          0
cpu0_DTLB AVERAGE MISS LATENCY: 11.4566 cycles
cpu0_ITLB TOTAL     ACCESS:   12720013  HIT:   12720013  MISS:          0
cpu0_ITLB LOAD      ACCESS:   12720013  HIT:   12720013  MISS:          0
cpu0_ITLB RFO       ACCESS:          0  HIT:          0  MISS:          0
cpu0_ITLB PREFETCH  ACCESS:          0  HIT:          0  MISS:          0
cpu0_ITLB WRITEBACK ACCESS:          0  HIT:          0  MISS:          0
cpu0_ITLB TRANSLATION ACCESS:          0  HIT:          0  MISS:          0
cpu0_ITLB PREFETCH  REQUESTED:          0  ISSUED:          0  USEFUL:          0  USELESS:          0
cpu0_ITLB AVERAGE MISS LATENCY: -nan cycles
cpu0_L1I TOTAL     ACCESS:         52  HIT:         52  MISS:          0
cpu0_L1I LOAD      ACCESS:         52  HIT:         52  MISS:          0
cpu0_L1I RFO       ACCESS:          0  HIT:          0  MISS:          0
cpu0_L1I PREFETCH  ACCESS:          0  HIT:          0  MISS:          0
cpu0_L1I WRITEBACK ACCESS:          0  HIT:          0  MISS:          0
cpu0_L1I TRANSLATION ACCESS:          0  HIT:          0  MISS:          0
cpu0_L1I PREFETCH  REQUESTED:          0  ISSUED:          0  USEFUL:          0  USELESS:          0
cpu0_L1I AVERAGE MISS LATENCY: -nan cycles
cpu0_STLB TOTAL     ACCESS:    9268496  HIT:    7944927  MISS:    1323569
cpu0_STLB LOAD      ACCESS:    8740732  HIT:    7428266  MISS:    1312466
cpu0_STLB RFO       ACCESS:     527764  HIT:     516661  MISS:      11103
cpu0_STLB PREFETCH  ACCESS:          0  HIT:          0  MISS:          0
cpu0_STLB WRITEBACK ACCESS:          0  HIT:          0  MISS:          0
cpu0_STLB TRANSLATION ACCESS:          0  HIT:          0  MISS:          0
cpu0_STLB PREFETCH  REQUESTED:          0  ISSUED:          0  USEFUL:          0  USELESS:          0
cpu0_STLB AVERAGE MISS LATENCY: 17.1317 cycles
cpu0_L1D TOTAL     ACCESS:   28033083  HIT:   16255737  MISS:   11777346
cpu0_L1D LOAD      ACCESS:   21734598  HIT:   10431412  MISS:   11303186
cpu0_L1D RFO       ACCESS:    4979267  HIT:    4680405  MISS:     298862
cpu0_L1D PREFETCH  ACCESS:          0  HIT:          0  MISS:          0
cpu0_L1D WRITEBACK ACCESS:          0  HIT:          0  MISS:          0
cpu0_L1D TRANSLATION ACCESS:    1319218  HIT:    1143920  MISS:     175298
cpu0_L1D PREFETCH  REQUESTED:          0  ISSUED:          0  USEFUL:          0  USELESS:          0
cpu0_L1D AVERAGE MISS LATENCY: 239.238 cycles
cpu0_L2C TOTAL     ACCESS:   14261961  HIT:    5814475  MISS:    8447486
cpu0_L2C LOAD      ACCESS:   11302736  HIT:    3070247  MISS:    8232489
cpu0_L2C RFO       ACCESS:     298849  HIT:     121289  MISS:     177560
cpu0_L2C PREFETCH  ACCESS:          0  HIT:          0  MISS:          0
cpu0_L2C WRITEBACK ACCESS:    2485078  HIT:    2484482  MISS:        596
cpu0_L2C TRANSLATION ACCESS:     175298  HIT:     138457  MISS:      36841
cpu0_L2C PREFETCH  REQUESTED:          0  ISSUED:          0  USEFUL:          0  USELESS:          0
cpu0_L2C AVERAGE MISS LATENCY: 318.099 cycles
LLC TOTAL     ACCESS:   10355203  HIT:    4296826  MISS:    6058377
LLC LOAD      ACCESS:    8232488  HIT:    2962517  MISS:    5269971
LLC RFO       ACCESS:     177560  HIT:     108667  MISS:      68893
LLC PREFETCH  ACCESS:          0  HIT:          0  MISS:          0
LLC WRITEBACK ACCESS:    1908314  HIT:    1196523  MISS:     711791
LLC TRANSLATION ACCESS:      36841  HIT:      29119  MISS:       7722
LLC PREFETCH  REQUESTED:          0  ISSUED:          0  USEFUL:          0  USELESS:          0
LLC AVERAGE MISS LATENCY: 414.262 cycles
Insertion Distribution: 
	LOAD 217772 0 0 133596 5437450 
	RFO 16470 0 0 17992 42124 
	PREF 0 0 0 0 0 
	WRITEBACK 0 0 0 0 780896 
	 1 0 0 225 7796 
Total Prefetch Downgrades: 0

DRAM Statistics
 CHANNEL 0
 RQ ROW_BUFFER_HIT:       9933  ROW_BUFFER_MISS:    5335789
 DBUS AVG_CONGESTED_CYCLE:    3.93488
 WQ ROW_BUFFER_HIT:      35643  ROW_BUFFER_MISS:     910779  FULL:          0


CPU 0 Branch Prediction Accuracy: 85.442% MPKI: 39.3219 Average ROB Occupancy at Mispredict: 19.0356
Branch type MPKI
BRANCH_DIRECT_JUMP: 0
BRANCH_INDIRECT: 0
BRANCH_CONDITIONAL: 39.3219
BRANCH_DIRECT_CALL: 0
BRANCH_INDIRECT_CALL: 0
BRANCH_RETURN: 0

