
*** ChampSim Multicore Out-of-Order Simulator ***

Warmup Instructions: 10000000
Simulation Instructions: 100000000
Number of CPUs: 1
Off-chip DRAM Size: 4 GiB Channels: 1 Width: 64-bit Data Rate: 3200 MT/s

VirtualMemory physical capacity: 8588881920 num_ppages: 2096895
VirtualMemory page size: 4096 log2_page_size: 12

CPU 0 runs /datasets/cs240c-wi22-a00-public/data/Assignment2/mcf_158B.trace.xz
CPU 0 Bimodal branch predictor
Basic BTB sets: 1024 ways: 8 indirect buffer size: 4096 RAS size: 64
Initialize SRRIP state
Heartbeat CPU 0 instructions: 10000002 cycles: 3864076 heartbeat IPC: 2.58794 cumulative IPC: 2.58794 (Simulation time: 0 hr 0 min 56 sec) 

Warmup complete CPU 0 instructions: 10000002 cycles: 3864076 (Simulation time: 0 hr 0 min 56 sec) 

Heartbeat CPU 0 instructions: 20000000 cycles: 136558992 heartbeat IPC: 0.0753608 cumulative IPC: 0.0753608 (Simulation time: 0 hr 4 min 33 sec) 
Heartbeat CPU 0 instructions: 30000000 cycles: 263033030 heartbeat IPC: 0.0790676 cumulative IPC: 0.0771697 (Simulation time: 0 hr 7 min 55 sec) 
Heartbeat CPU 0 instructions: 40000001 cycles: 387129042 heartbeat IPC: 0.0805828 cumulative IPC: 0.0782748 (Simulation time: 0 hr 11 min 16 sec) 
Heartbeat CPU 0 instructions: 50000000 cycles: 501333289 heartbeat IPC: 0.0875624 cumulative IPC: 0.080407 (Simulation time: 0 hr 14 min 31 sec) 
Heartbeat CPU 0 instructions: 60000000 cycles: 611426613 heartbeat IPC: 0.090832 cumulative IPC: 0.0822961 (Simulation time: 0 hr 17 min 43 sec) 
Heartbeat CPU 0 instructions: 70000002 cycles: 719188473 heartbeat IPC: 0.0927972 cumulative IPC: 0.083878 (Simulation time: 0 hr 20 min 51 sec) 
Heartbeat CPU 0 instructions: 80000000 cycles: 829388594 heartbeat IPC: 0.090744 cumulative IPC: 0.0847946 (Simulation time: 0 hr 24 min 2 sec) 
Heartbeat CPU 0 instructions: 90000003 cycles: 943044313 heartbeat IPC: 0.087985 cumulative IPC: 0.0851807 (Simulation time: 0 hr 27 min 21 sec) 
Heartbeat CPU 0 instructions: 100000003 cycles: 1058592285 heartbeat IPC: 0.0865441 cumulative IPC: 0.08533 (Simulation time: 0 hr 30 min 40 sec) 
Heartbeat CPU 0 instructions: 110000001 cycles: 1175761464 heartbeat IPC: 0.0853467 cumulative IPC: 0.0853317 (Simulation time: 0 hr 34 min 5 sec) 
Finished CPU 0 instructions: 100000002 cycles: 1171897389 cumulative IPC: 0.0853317 (Simulation time: 0 hr 34 min 5 sec) 

ChampSim completed all CPUs

Region of Interest Statistics

CPU 0 cumulative IPC: 0.0853317 instructions: 100000002 cycles: 1171897389
cpu0_DTLB TOTAL     ACCESS:   23548347  HIT:   12726746  MISS:   10821601
cpu0_DTLB LOAD      ACCESS:   20428232  HIT:    9973659  MISS:   10454573
cpu0_DTLB RFO       ACCESS:    3120115  HIT:    2753087  MISS:     367028
cpu0_DTLB PREFETCH  ACCESS:          0  HIT:          0  MISS:          0
cpu0_DTLB WRITEBACK ACCESS:          0  HIT:          0  MISS:          0
cpu0_DTLB TRANSLATION ACCESS:          0  HIT:          0  MISS:          0
cpu0_DTLB PREFETCH  REQUESTED:          0  ISSUED:          0  USEFUL:          0  USELESS:          0
cpu0_DTLB AVERAGE MISS LATENCY: 11.0194 cycles
cpu0_ITLB TOTAL     ACCESS:   12963183  HIT:   12963183  MISS:          0
cpu0_ITLB LOAD      ACCESS:   12963183  HIT:   12963183  MISS:          0
cpu0_ITLB RFO       ACCESS:          0  HIT:          0  MISS:          0
cpu0_ITLB PREFETCH  ACCESS:          0  HIT:          0  MISS:          0
cpu0_ITLB WRITEBACK ACCESS:          0  HIT:          0  MISS:          0
cpu0_ITLB TRANSLATION ACCESS:          0  HIT:          0  MISS:          0
cpu0_ITLB PREFETCH  REQUESTED:          0  ISSUED:          0  USEFUL:          0  USELESS:          0
cpu0_ITLB AVERAGE MISS LATENCY: -nan cycles
cpu0_L1I TOTAL     ACCESS:         19  HIT:         14  MISS:          5
cpu0_L1I LOAD      ACCESS:         19  HIT:         14  MISS:          5
cpu0_L1I RFO       ACCESS:          0  HIT:          0  MISS:          0
cpu0_L1I PREFETCH  ACCESS:          0  HIT:          0  MISS:          0
cpu0_L1I WRITEBACK ACCESS:          0  HIT:          0  MISS:          0
cpu0_L1I TRANSLATION ACCESS:          0  HIT:          0  MISS:          0
cpu0_L1I PREFETCH  REQUESTED:          0  ISSUED:          0  USEFUL:          0  USELESS:          0
cpu0_L1I AVERAGE MISS LATENCY: 194.2 cycles
cpu0_STLB TOTAL     ACCESS:   10821601  HIT:    9710314  MISS:    1111287
cpu0_STLB LOAD      ACCESS:   10454573  HIT:    9350051  MISS:    1104522
cpu0_STLB RFO       ACCESS:     367028  HIT:     360263  MISS:       6765
cpu0_STLB PREFETCH  ACCESS:          0  HIT:          0  MISS:          0
cpu0_STLB WRITEBACK ACCESS:          0  HIT:          0  MISS:          0
cpu0_STLB TRANSLATION ACCESS:          0  HIT:          0  MISS:          0
cpu0_STLB PREFETCH  REQUESTED:          0  ISSUED:          0  USEFUL:          0  USELESS:          0
cpu0_STLB AVERAGE MISS LATENCY: 19.6265 cycles
cpu0_L1D TOTAL     ACCESS:   27609063  HIT:   14064951  MISS:   13544112
cpu0_L1D LOAD      ACCESS:   22262361  HIT:    9092404  MISS:   13169957
cpu0_L1D RFO       ACCESS:    4239026  HIT:    4033894  MISS:     205132
cpu0_L1D PREFETCH  ACCESS:          0  HIT:          0  MISS:          0
cpu0_L1D WRITEBACK ACCESS:          0  HIT:          0  MISS:          0
cpu0_L1D TRANSLATION ACCESS:    1107676  HIT:     938653  MISS:     169023
cpu0_L1D PREFETCH  REQUESTED:          0  ISSUED:          0  USEFUL:          0  USELESS:          0
cpu0_L1D AVERAGE MISS LATENCY: 154.413 cycles
cpu0_L2C TOTAL     ACCESS:   15652930  HIT:    6139750  MISS:    9513180
cpu0_L2C LOAD      ACCESS:   13169600  HIT:    3841640  MISS:    9327960
cpu0_L2C RFO       ACCESS:     205127  HIT:      71866  MISS:     133261
cpu0_L2C PREFETCH  ACCESS:          0  HIT:          0  MISS:          0
cpu0_L2C WRITEBACK ACCESS:    2109180  HIT:    2108828  MISS:        352
cpu0_L2C TRANSLATION ACCESS:     169023  HIT:     117416  MISS:      51607
cpu0_L2C PREFETCH  REQUESTED:          0  ISSUED:          0  USEFUL:          0  USELESS:          0
cpu0_L2C AVERAGE MISS LATENCY: 204.108 cycles
LLC TOTAL     ACCESS:   11019149  HIT:    4738668  MISS:    6280481
LLC LOAD      ACCESS:    9327958  HIT:    3699635  MISS:    5628323
LLC RFO       ACCESS:     133261  HIT:      73845  MISS:      59416
LLC PREFETCH  ACCESS:          0  HIT:          0  MISS:          0
LLC WRITEBACK ACCESS:    1506323  HIT:     920186  MISS:     586137
LLC TRANSLATION ACCESS:      51607  HIT:      45002  MISS:       6605
LLC PREFETCH  REQUESTED:          0  ISSUED:          0  USEFUL:          0  USELESS:          0
LLC AVERAGE MISS LATENCY: 277.358 cycles
Insertion Distribution: 
	LOAD 161327 0 0 117753 6036476 
	RFO 0 0 0 877 61014 
	PREF 0 0 0 0 0 
	WRITEBACK 0 0 0 0 610482 
	 10 0 0 218 7187 
Total Prefetch Downgrades: 0

DRAM Statistics
 CHANNEL 0
 RQ ROW_BUFFER_HIT:       9984  ROW_BUFFER_MISS:    5683941
 DBUS AVG_CONGESTED_CYCLE:    3.95152
 WQ ROW_BUFFER_HIT:      38221  ROW_BUFFER_MISS:     678481  FULL:          0


CPU 0 Branch Prediction Accuracy: 85.5988% MPKI: 40.2398 Average ROB Occupancy at Mispredict: 17.2637
Branch type MPKI
BRANCH_DIRECT_JUMP: 4e-05
BRANCH_INDIRECT: 0
BRANCH_CONDITIONAL: 40.2397
BRANCH_DIRECT_CALL: 0
BRANCH_INDIRECT_CALL: 0
BRANCH_RETURN: 0

