
*** ChampSim Multicore Out-of-Order Simulator ***

Warmup Instructions: 10000000
Simulation Instructions: 100000000
Number of CPUs: 1
Off-chip DRAM Size: 4 GiB Channels: 1 Width: 64-bit Data Rate: 3200 MT/s

VirtualMemory physical capacity: 8588881920 num_ppages: 2096895
VirtualMemory page size: 4096 log2_page_size: 12

CPU 0 runs /datasets/cs240c-wi22-a00-public/data/Assignment2/mcf_250B.trace.xz
CPU 0 Bimodal branch predictor
Basic BTB sets: 1024 ways: 8 indirect buffer size: 4096 RAS size: 64
Initialize SRRIP state
Heartbeat CPU 0 instructions: 10000004 cycles: 3834266 heartbeat IPC: 2.60806 cumulative IPC: 2.60806 (Simulation time: 0 hr 0 min 55 sec) 

Warmup complete CPU 0 instructions: 10000004 cycles: 3834266 (Simulation time: 0 hr 0 min 55 sec) 

Heartbeat CPU 0 instructions: 20000000 cycles: 146419987 heartbeat IPC: 0.0701332 cumulative IPC: 0.0701332 (Simulation time: 0 hr 5 min 4 sec) 
Heartbeat CPU 0 instructions: 30000000 cycles: 284102900 heartbeat IPC: 0.0726307 cumulative IPC: 0.0713601 (Simulation time: 0 hr 8 min 58 sec) 
Heartbeat CPU 0 instructions: 40000000 cycles: 429111391 heartbeat IPC: 0.0689615 cumulative IPC: 0.0705422 (Simulation time: 0 hr 13 min 12 sec) 
Heartbeat CPU 0 instructions: 50000000 cycles: 569634083 heartbeat IPC: 0.0711629 cumulative IPC: 0.0706964 (Simulation time: 0 hr 17 min 29 sec) 
Heartbeat CPU 0 instructions: 60000000 cycles: 709813755 heartbeat IPC: 0.071337 cumulative IPC: 0.0708236 (Simulation time: 0 hr 21 min 46 sec) 
Heartbeat CPU 0 instructions: 70000000 cycles: 843095611 heartbeat IPC: 0.075029 cumulative IPC: 0.0714914 (Simulation time: 0 hr 25 min 53 sec) 
Heartbeat CPU 0 instructions: 80000000 cycles: 986193699 heartbeat IPC: 0.0698821 cumulative IPC: 0.071257 (Simulation time: 0 hr 30 min 17 sec) 
Heartbeat CPU 0 instructions: 90000000 cycles: 1107984361 heartbeat IPC: 0.0821081 cumulative IPC: 0.0724539 (Simulation time: 0 hr 34 min 6 sec) 
Heartbeat CPU 0 instructions: 100000000 cycles: 1244031513 heartbeat IPC: 0.0735039 cumulative IPC: 0.0725691 (Simulation time: 0 hr 38 min 17 sec) 
Heartbeat CPU 0 instructions: 110000000 cycles: 1386670803 heartbeat IPC: 0.0701069 cumulative IPC: 0.0723151 (Simulation time: 0 hr 42 min 38 sec) 
Finished CPU 0 instructions: 100000000 cycles: 1382836548 cumulative IPC: 0.0723151 (Simulation time: 0 hr 42 min 38 sec) 

ChampSim completed all CPUs

Region of Interest Statistics

CPU 0 cumulative IPC: 0.0723151 instructions: 100000000 cycles: 1382836548
cpu0_DTLB TOTAL     ACCESS:   20766875  HIT:    2976533  MISS:   17790342
cpu0_DTLB LOAD      ACCESS:   20271055  HIT:    2536610  MISS:   17734445
cpu0_DTLB RFO       ACCESS:     495820  HIT:     439923  MISS:      55897
cpu0_DTLB PREFETCH  ACCESS:          0  HIT:          0  MISS:          0
cpu0_DTLB WRITEBACK ACCESS:          0  HIT:          0  MISS:          0
cpu0_DTLB TRANSLATION ACCESS:          0  HIT:          0  MISS:          0
cpu0_DTLB PREFETCH  REQUESTED:          0  ISSUED:          0  USEFUL:          0  USELESS:          0
cpu0_DTLB AVERAGE MISS LATENCY: 10.4585 cycles
cpu0_ITLB TOTAL     ACCESS:   11316029  HIT:   11316029  MISS:          0
cpu0_ITLB LOAD      ACCESS:   11316029  HIT:   11316029  MISS:          0
cpu0_ITLB RFO       ACCESS:          0  HIT:          0  MISS:          0
cpu0_ITLB PREFETCH  ACCESS:          0  HIT:          0  MISS:          0
cpu0_ITLB WRITEBACK ACCESS:          0  HIT:          0  MISS:          0
cpu0_ITLB TRANSLATION ACCESS:          0  HIT:          0  MISS:          0
cpu0_ITLB PREFETCH  REQUESTED:          0  ISSUED:          0  USEFUL:          0  USELESS:          0
cpu0_ITLB AVERAGE MISS LATENCY: -nan cycles
cpu0_L1I TOTAL     ACCESS:          4  HIT:          4  MISS:          0
cpu0_L1I LOAD      ACCESS:          4  HIT:          4  MISS:          0
cpu0_L1I RFO       ACCESS:          0  HIT:          0  MISS:          0
cpu0_L1I PREFETCH  ACCESS:          0  HIT:          0  MISS:          0
cpu0_L1I WRITEBACK ACCESS:          0  HIT:          0  MISS:          0
cpu0_L1I TRANSLATION ACCESS:          0  HIT:          0  MISS:          0
cpu0_L1I PREFETCH  REQUESTED:          0  ISSUED:          0  USEFUL:          0  USELESS:          0
cpu0_L1I AVERAGE MISS LATENCY: -nan cycles
cpu0_STLB TOTAL     ACCESS:   17790342  HIT:   17413176  MISS:     377166
cpu0_STLB LOAD      ACCESS:   17734445  HIT:   17359416  MISS:     375029
cpu0_STLB RFO       ACCESS:      55897  HIT:      53760  MISS:       2137
cpu0_STLB PREFETCH  ACCESS:          0  HIT:          0  MISS:          0
cpu0_STLB WRITEBACK ACCESS:          0  HIT:          0  MISS:          0
cpu0_STLB TRANSLATION ACCESS:          0  HIT:          0  MISS:          0
cpu0_STLB PREFETCH  REQUESTED:          0  ISSUED:          0  USEFUL:          0  USELESS:          0
cpu0_STLB AVERAGE MISS LATENCY: 68.7653 cycles
cpu0_L1D TOTAL     ACCESS:   21384421  HIT:    3440498  MISS:   17943923
cpu0_L1D LOAD      ACCESS:   20343571  HIT:    2559575  MISS:   17783996
cpu0_L1D RFO       ACCESS:     664700  HIT:     633040  MISS:      31660
cpu0_L1D PREFETCH  ACCESS:          0  HIT:          0  MISS:          0
cpu0_L1D WRITEBACK ACCESS:          0  HIT:          0  MISS:          0
cpu0_L1D TRANSLATION ACCESS:     376150  HIT:     247883  MISS:     128267
cpu0_L1D PREFETCH  REQUESTED:          0  ISSUED:          0  USEFUL:          0  USELESS:          0
cpu0_L1D AVERAGE MISS LATENCY: 228.047 cycles
cpu0_L2C TOTAL     ACCESS:   18302969  HIT:    5792768  MISS:   12510201
cpu0_L2C LOAD      ACCESS:   17783969  HIT:    5386670  MISS:   12397299
cpu0_L2C RFO       ACCESS:      31659  HIT:       9149  MISS:      22510
cpu0_L2C PREFETCH  ACCESS:          0  HIT:          0  MISS:          0
cpu0_L2C WRITEBACK ACCESS:     359074  HIT:     359072  MISS:          2
cpu0_L2C TRANSLATION ACCESS:     128267  HIT:      37877  MISS:      90390
cpu0_L2C PREFETCH  REQUESTED:          0  ISSUED:          0  USEFUL:          0  USELESS:          0
cpu0_L2C AVERAGE MISS LATENCY: 311.309 cycles
LLC TOTAL     ACCESS:   12800569  HIT:    5928351  MISS:    6872218
LLC LOAD      ACCESS:   12397299  HIT:    5642464  MISS:    6754835
LLC RFO       ACCESS:      22510  HIT:      14074  MISS:       8436
LLC PREFETCH  ACCESS:          0  HIT:          0  MISS:          0
LLC WRITEBACK ACCESS:     290370  HIT:     185366  MISS:     105004
LLC TRANSLATION ACCESS:      90390  HIT:      86447  MISS:       3943
LLC PREFETCH  REQUESTED:          0  ISSUED:          0  USEFUL:          0  USELESS:          0
LLC AVERAGE MISS LATENCY: 528.479 cycles
Insertion Distribution: 
	LOAD 122215 0 0 112437 7225363 
	RFO 4975 0 0 4345 2867 
	PREF 0 0 0 0 0 
	WRITEBACK 0 0 0 0 147278 
	 13 0 0 144 4430 
Total Prefetch Downgrades: 0

DRAM Statistics
 CHANNEL 0
 RQ ROW_BUFFER_HIT:       3087  ROW_BUFFER_MISS:    6764050
 DBUS AVG_CONGESTED_CYCLE:    3.96301
 WQ ROW_BUFFER_HIT:      11344  ROW_BUFFER_MISS:     139893  FULL:          0


CPU 0 Branch Prediction Accuracy: 91.6559% MPKI: 25.5287 Average ROB Occupancy at Mispredict: 24.4982
Branch type MPKI
BRANCH_DIRECT_JUMP: 2e-05
BRANCH_INDIRECT: 0
BRANCH_CONDITIONAL: 25.5287
BRANCH_DIRECT_CALL: 0
BRANCH_INDIRECT_CALL: 0
BRANCH_RETURN: 0

