
*** ChampSim Multicore Out-of-Order Simulator ***

Warmup Instructions: 10000000
Simulation Instructions: 100000000
Number of CPUs: 1
Off-chip DRAM Size: 4 GiB Channels: 1 Width: 64-bit Data Rate: 3200 MT/s

VirtualMemory physical capacity: 8588881920 num_ppages: 2096895
VirtualMemory page size: 4096 log2_page_size: 12

CPU 0 runs /datasets/cs240c-wi22-a00-public/data/Assignment2/omnetpp_340B.trace.xz
CPU 0 Bimodal branch predictor
Basic BTB sets: 1024 ways: 8 indirect buffer size: 4096 RAS size: 64
Initialize SRRIP state
Heartbeat CPU 0 instructions: 10000002 cycles: 2500207 heartbeat IPC: 3.99967 cumulative IPC: 3.99967 (Simulation time: 0 hr 0 min 39 sec) 

Warmup complete CPU 0 instructions: 10000002 cycles: 2500207 (Simulation time: 0 hr 0 min 39 sec) 

Heartbeat CPU 0 instructions: 20000004 cycles: 27265343 heartbeat IPC: 0.403794 cumulative IPC: 0.403794 (Simulation time: 0 hr 2 min 3 sec) 
Heartbeat CPU 0 instructions: 30000002 cycles: 52410699 heartbeat IPC: 0.397688 cumulative IPC: 0.400717 (Simulation time: 0 hr 3 min 27 sec) 
Heartbeat CPU 0 instructions: 40000000 cycles: 77056640 heartbeat IPC: 0.405746 cumulative IPC: 0.40238 (Simulation time: 0 hr 4 min 50 sec) 
Heartbeat CPU 0 instructions: 50000002 cycles: 102576200 heartbeat IPC: 0.391856 cumulative IPC: 0.399696 (Simulation time: 0 hr 6 min 12 sec) 
Heartbeat CPU 0 instructions: 60000001 cycles: 128676122 heartbeat IPC: 0.383143 cumulative IPC: 0.396272 (Simulation time: 0 hr 7 min 43 sec) 
Heartbeat CPU 0 instructions: 70000003 cycles: 154549258 heartbeat IPC: 0.386501 cumulative IPC: 0.39461 (Simulation time: 0 hr 9 min 4 sec) 
Heartbeat CPU 0 instructions: 80000003 cycles: 180616908 heartbeat IPC: 0.383617 cumulative IPC: 0.393001 (Simulation time: 0 hr 10 min 35 sec) 
Heartbeat CPU 0 instructions: 90000000 cycles: 207113379 heartbeat IPC: 0.377409 cumulative IPC: 0.390982 (Simulation time: 0 hr 11 min 59 sec) 
Heartbeat CPU 0 instructions: 100000000 cycles: 233177580 heartbeat IPC: 0.383668 cumulative IPC: 0.390155 (Simulation time: 0 hr 13 min 29 sec) 
Heartbeat CPU 0 instructions: 110000000 cycles: 258105818 heartbeat IPC: 0.401152 cumulative IPC: 0.391228 (Simulation time: 0 hr 14 min 56 sec) 
Finished CPU 0 instructions: 100000000 cycles: 255605613 cumulative IPC: 0.391228 (Simulation time: 0 hr 14 min 56 sec) 

ChampSim completed all CPUs

Region of Interest Statistics

CPU 0 cumulative IPC: 0.391228 instructions: 100000000 cycles: 255605613
cpu0_DTLB TOTAL     ACCESS:   23847261  HIT:   21950237  MISS:    1897024
cpu0_DTLB LOAD      ACCESS:   13880440  HIT:   12299318  MISS:    1581122
cpu0_DTLB RFO       ACCESS:    9966821  HIT:    9650919  MISS:     315902
cpu0_DTLB PREFETCH  ACCESS:          0  HIT:          0  MISS:          0
cpu0_DTLB WRITEBACK ACCESS:          0  HIT:          0  MISS:          0
cpu0_DTLB TRANSLATION ACCESS:          0  HIT:          0  MISS:          0
cpu0_DTLB PREFETCH  REQUESTED:          0  ISSUED:          0  USEFUL:          0  USELESS:          0
cpu0_DTLB AVERAGE MISS LATENCY: 13.1243 cycles
cpu0_ITLB TOTAL     ACCESS:   11128497  HIT:   11093130  MISS:      35367
cpu0_ITLB LOAD      ACCESS:   11128497  HIT:   11093130  MISS:      35367
cpu0_ITLB RFO       ACCESS:          0  HIT:          0  MISS:          0
cpu0_ITLB PREFETCH  ACCESS:          0  HIT:          0  MISS:          0
cpu0_ITLB WRITEBACK ACCESS:          0  HIT:          0  MISS:          0
cpu0_ITLB TRANSLATION ACCESS:          0  HIT:          0  MISS:          0
cpu0_ITLB PREFETCH  REQUESTED:          0  ISSUED:          0  USEFUL:          0  USELESS:          0
cpu0_ITLB AVERAGE MISS LATENCY: 9.25702 cycles
cpu0_L1I TOTAL     ACCESS:    8347378  HIT:    8341028  MISS:       6350
cpu0_L1I LOAD      ACCESS:    8347378  HIT:    8341028  MISS:       6350
cpu0_L1I RFO       ACCESS:          0  HIT:          0  MISS:          0
cpu0_L1I PREFETCH  ACCESS:          0  HIT:          0  MISS:          0
cpu0_L1I WRITEBACK ACCESS:          0  HIT:          0  MISS:          0
cpu0_L1I TRANSLATION ACCESS:          0  HIT:          0  MISS:          0
cpu0_L1I PREFETCH  REQUESTED:          0  ISSUED:          0  USEFUL:          0  USELESS:          0
cpu0_L1I AVERAGE MISS LATENCY: 56.8115 cycles
cpu0_STLB TOTAL     ACCESS:    1932391  HIT:    1457197  MISS:     475194
cpu0_STLB LOAD      ACCESS:    1616489  HIT:    1262581  MISS:     353908
cpu0_STLB RFO       ACCESS:     315902  HIT:     194616  MISS:     121286
cpu0_STLB PREFETCH  ACCESS:          0  HIT:          0  MISS:          0
cpu0_STLB WRITEBACK ACCESS:          0  HIT:          0  MISS:          0
cpu0_STLB TRANSLATION ACCESS:          0  HIT:          0  MISS:          0
cpu0_STLB PREFETCH  REQUESTED:          0  ISSUED:          0  USEFUL:          0  USELESS:          0
cpu0_STLB AVERAGE MISS LATENCY: 16.0131 cycles
cpu0_L1D TOTAL     ACCESS:   31448024  HIT:   28950122  MISS:    2497902
cpu0_L1D LOAD      ACCESS:   15709196  HIT:   13526435  MISS:    2182761
cpu0_L1D RFO       ACCESS:   15298404  HIT:   14987768  MISS:     310636
cpu0_L1D PREFETCH  ACCESS:          0  HIT:          0  MISS:          0
cpu0_L1D WRITEBACK ACCESS:          0  HIT:          0  MISS:          0
cpu0_L1D TRANSLATION ACCESS:     440424  HIT:     435919  MISS:       4505
cpu0_L1D PREFETCH  REQUESTED:          0  ISSUED:          0  USEFUL:          0  USELESS:          0
cpu0_L1D AVERAGE MISS LATENCY: 143.667 cycles
cpu0_L2C TOTAL     ACCESS:    3581395  HIT:    1431404  MISS:    2149991
cpu0_L2C LOAD      ACCESS:    2189073  HIT:     330852  MISS:    1858221
cpu0_L2C RFO       ACCESS:     310636  HIT:      22237  MISS:     288399
cpu0_L2C PREFETCH  ACCESS:          0  HIT:          0  MISS:          0
cpu0_L2C WRITEBACK ACCESS:    1077181  HIT:    1074907  MISS:       2274
cpu0_L2C TRANSLATION ACCESS:       4505  HIT:       3408  MISS:       1097
cpu0_L2C PREFETCH  REQUESTED:          0  ISSUED:          0  USEFUL:          0  USELESS:          0
cpu0_L2C AVERAGE MISS LATENCY: 154.113 cycles
LLC TOTAL     ACCESS:    3079103  HIT:    1035979  MISS:    2043124
LLC LOAD      ACCESS:    1858220  HIT:     434184  MISS:    1424036
LLC RFO       ACCESS:     288399  HIT:      65609  MISS:     222790
LLC PREFETCH  ACCESS:          0  HIT:          0  MISS:          0
LLC WRITEBACK ACCESS:     931387  HIT:     535149  MISS:     396238
LLC TRANSLATION ACCESS:       1097  HIT:       1037  MISS:         60
LLC PREFETCH  REQUESTED:          0  ISSUED:          0  USEFUL:          0  USELESS:          0
LLC AVERAGE MISS LATENCY: 140.098 cycles
Insertion Distribution: 
	LOAD 139693 0 0 200656 1238443 
	RFO 48584 0 0 94178 102437 
	PREF 0 0 0 0 0 
	WRITEBACK 0 0 0 0 427593 
	 8 0 0 39 38 
Total Prefetch Downgrades: 0

DRAM Statistics
 CHANNEL 0
 RQ ROW_BUFFER_HIT:      95092  ROW_BUFFER_MISS:    1551683
 DBUS AVG_CONGESTED_CYCLE:    3.91884
 WQ ROW_BUFFER_HIT:     171261  ROW_BUFFER_MISS:     498437  FULL:          0


CPU 0 Branch Prediction Accuracy: 94.4212% MPKI: 13.4017 Average ROB Occupancy at Mispredict: 52.1416
Branch type MPKI
BRANCH_DIRECT_JUMP: 0.00017
BRANCH_INDIRECT: 0.04543
BRANCH_CONDITIONAL: 13.2857
BRANCH_DIRECT_CALL: 8e-05
BRANCH_INDIRECT_CALL: 0.04734
BRANCH_RETURN: 0.02301

