
*** ChampSim Multicore Out-of-Order Simulator ***

Warmup Instructions: 10000000
Simulation Instructions: 100000000
Number of CPUs: 1
Off-chip DRAM Size: 4 GiB Channels: 1 Width: 64-bit Data Rate: 3200 MT/s

VirtualMemory physical capacity: 8588881920 num_ppages: 2096895
VirtualMemory page size: 4096 log2_page_size: 12

CPU 0 runs /datasets/cs240c-wi22-a00-public/data/Assignment2/perlbench_53B.trace.xz
CPU 0 Bimodal branch predictor
Basic BTB sets: 1024 ways: 8 indirect buffer size: 4096 RAS size: 64
Initialize SRRIP state
Heartbeat CPU 0 instructions: 10000000 cycles: 2503714 heartbeat IPC: 3.99407 cumulative IPC: 3.99407 (Simulation time: 0 hr 0 min 37 sec) 

Warmup complete CPU 0 instructions: 10000004 cycles: 2503715 (Simulation time: 0 hr 0 min 37 sec) 

Heartbeat CPU 0 instructions: 20000001 cycles: 15164083 heartbeat IPC: 0.789866 cumulative IPC: 0.789866 (Simulation time: 0 hr 1 min 27 sec) 
Heartbeat CPU 0 instructions: 30000001 cycles: 25171682 heartbeat IPC: 0.999241 cumulative IPC: 0.882302 (Simulation time: 0 hr 2 min 15 sec) 
Heartbeat CPU 0 instructions: 40000004 cycles: 37127208 heartbeat IPC: 0.836434 cumulative IPC: 0.866464 (Simulation time: 0 hr 3 min 3 sec) 
Heartbeat CPU 0 instructions: 50000001 cycles: 48304773 heartbeat IPC: 0.894649 cumulative IPC: 0.873342 (Simulation time: 0 hr 3 min 49 sec) 
Heartbeat CPU 0 instructions: 60000004 cycles: 61322780 heartbeat IPC: 0.768167 cumulative IPC: 0.850065 (Simulation time: 0 hr 4 min 40 sec) 
Heartbeat CPU 0 instructions: 70000004 cycles: 75103804 heartbeat IPC: 0.725635 cumulative IPC: 0.826445 (Simulation time: 0 hr 5 min 34 sec) 
Heartbeat CPU 0 instructions: 80000004 cycles: 88813343 heartbeat IPC: 0.729419 cumulative IPC: 0.811033 (Simulation time: 0 hr 6 min 27 sec) 
Heartbeat CPU 0 instructions: 90000001 cycles: 101498801 heartbeat IPC: 0.788304 cumulative IPC: 0.808121 (Simulation time: 0 hr 7 min 17 sec) 
Heartbeat CPU 0 instructions: 100000003 cycles: 115343883 heartbeat IPC: 0.722278 cumulative IPC: 0.797588 (Simulation time: 0 hr 8 min 11 sec) 
Heartbeat CPU 0 instructions: 110000002 cycles: 127625906 heartbeat IPC: 0.814198 cumulative IPC: 0.799219 (Simulation time: 0 hr 9 min 1 sec) 
Finished CPU 0 instructions: 100000000 cycles: 125122192 cumulative IPC: 0.799219 (Simulation time: 0 hr 9 min 1 sec) 

ChampSim completed all CPUs

Region of Interest Statistics

CPU 0 cumulative IPC: 0.799219 instructions: 100000000 cycles: 125122192
cpu0_DTLB TOTAL     ACCESS:   24814676  HIT:   24162101  MISS:     652575
cpu0_DTLB LOAD      ACCESS:   16193392  HIT:   15631580  MISS:     561812
cpu0_DTLB RFO       ACCESS:    8621284  HIT:    8530521  MISS:      90763
cpu0_DTLB PREFETCH  ACCESS:          0  HIT:          0  MISS:          0
cpu0_DTLB WRITEBACK ACCESS:          0  HIT:          0  MISS:          0
cpu0_DTLB TRANSLATION ACCESS:          0  HIT:          0  MISS:          0
cpu0_DTLB PREFETCH  REQUESTED:          0  ISSUED:          0  USEFUL:          0  USELESS:          0
cpu0_DTLB AVERAGE MISS LATENCY: 9.26109 cycles
cpu0_ITLB TOTAL     ACCESS:    8010923  HIT:    7934338  MISS:      76585
cpu0_ITLB LOAD      ACCESS:    8010923  HIT:    7934338  MISS:      76585
cpu0_ITLB RFO       ACCESS:          0  HIT:          0  MISS:          0
cpu0_ITLB PREFETCH  ACCESS:          0  HIT:          0  MISS:          0
cpu0_ITLB WRITEBACK ACCESS:          0  HIT:          0  MISS:          0
cpu0_ITLB TRANSLATION ACCESS:          0  HIT:          0  MISS:          0
cpu0_ITLB PREFETCH  REQUESTED:          0  ISSUED:          0  USEFUL:          0  USELESS:          0
cpu0_ITLB AVERAGE MISS LATENCY: 9.11634 cycles
cpu0_L1I TOTAL     ACCESS:   11821352  HIT:   11145155  MISS:     676197
cpu0_L1I LOAD      ACCESS:   11821352  HIT:   11145155  MISS:     676197
cpu0_L1I RFO       ACCESS:          0  HIT:          0  MISS:          0
cpu0_L1I PREFETCH  ACCESS:          0  HIT:          0  MISS:          0
cpu0_L1I WRITEBACK ACCESS:          0  HIT:          0  MISS:          0
cpu0_L1I TRANSLATION ACCESS:          0  HIT:          0  MISS:          0
cpu0_L1I PREFETCH  REQUESTED:          0  ISSUED:          0  USEFUL:          0  USELESS:          0
cpu0_L1I AVERAGE MISS LATENCY: 12.1093 cycles
cpu0_STLB TOTAL     ACCESS:     729160  HIT:     723347  MISS:       5813
cpu0_STLB LOAD      ACCESS:     638397  HIT:     633280  MISS:       5117
cpu0_STLB RFO       ACCESS:      90763  HIT:      90067  MISS:        696
cpu0_STLB PREFETCH  ACCESS:          0  HIT:          0  MISS:          0
cpu0_STLB WRITEBACK ACCESS:          0  HIT:          0  MISS:          0
cpu0_STLB TRANSLATION ACCESS:          0  HIT:          0  MISS:          0
cpu0_STLB PREFETCH  REQUESTED:          0  ISSUED:          0  USEFUL:          0  USELESS:          0
cpu0_STLB AVERAGE MISS LATENCY: 30.0896 cycles
cpu0_L1D TOTAL     ACCESS:   31988499  HIT:   31030755  MISS:     957744
cpu0_L1D LOAD      ACCESS:   17000329  HIT:   16127599  MISS:     872730
cpu0_L1D RFO       ACCESS:   14982400  HIT:   14898664  MISS:      83736
cpu0_L1D PREFETCH  ACCESS:          0  HIT:          0  MISS:          0
cpu0_L1D WRITEBACK ACCESS:          0  HIT:          0  MISS:          0
cpu0_L1D TRANSLATION ACCESS:       5770  HIT:       4492  MISS:       1278
cpu0_L1D PREFETCH  REQUESTED:          0  ISSUED:          0  USEFUL:          0  USELESS:          0
cpu0_L1D AVERAGE MISS LATENCY: 16.7965 cycles
cpu0_L2C TOTAL     ACCESS:    1881700  HIT:    1715441  MISS:     166259
cpu0_L2C LOAD      ACCESS:    1548914  HIT:    1404583  MISS:     144331
cpu0_L2C RFO       ACCESS:      83730  HIT:      62404  MISS:      21326
cpu0_L2C PREFETCH  ACCESS:          0  HIT:          0  MISS:          0
cpu0_L2C WRITEBACK ACCESS:     247778  HIT:     247302  MISS:        476
cpu0_L2C TRANSLATION ACCESS:       1278  HIT:       1152  MISS:        126
cpu0_L2C PREFETCH  REQUESTED:          0  ISSUED:          0  USEFUL:          0  USELESS:          0
cpu0_L2C AVERAGE MISS LATENCY: 37.7463 cycles
LLC TOTAL     ACCESS:     213733  HIT:     194255  MISS:      19478
LLC LOAD      ACCESS:     144331  HIT:     130657  MISS:      13674
LLC RFO       ACCESS:      21326  HIT:      16325  MISS:       5001
LLC PREFETCH  ACCESS:          0  HIT:          0  MISS:          0
LLC WRITEBACK ACCESS:      47950  HIT:      47160  MISS:        790
LLC TRANSLATION ACCESS:        126  HIT:        113  MISS:         13
LLC PREFETCH  REQUESTED:          0  ISSUED:          0  USEFUL:          0  USELESS:          0
LLC AVERAGE MISS LATENCY: 143.454 cycles
Insertion Distribution: 
	LOAD 5385 0 0 27362 257 
	RFO 1163 0 0 5722 95 
	PREF 0 0 0 0 0 
	WRITEBACK 0 0 0 0 790 
	 4 0 0 30 0 
Total Prefetch Downgrades: 0

DRAM Statistics
 CHANNEL 0
 RQ ROW_BUFFER_HIT:       3748  ROW_BUFFER_MISS:      14910
 DBUS AVG_CONGESTED_CYCLE:     3.8537
 WQ ROW_BUFFER_HIT:        858  ROW_BUFFER_MISS:       2688  FULL:          0


CPU 0 Branch Prediction Accuracy: 94.2848% MPKI: 12.6658 Average ROB Occupancy at Mispredict: 36.2932
Branch type MPKI
BRANCH_DIRECT_JUMP: 0.00232
BRANCH_INDIRECT: 0.81431
BRANCH_CONDITIONAL: 10.3853
BRANCH_DIRECT_CALL: 0.00236
BRANCH_INDIRECT_CALL: 1.44344
BRANCH_RETURN: 0.01802

