
*** ChampSim Multicore Out-of-Order Simulator ***

Warmup Instructions: 10000000
Simulation Instructions: 100000000
Number of CPUs: 1
Off-chip DRAM Size: 4 GiB Channels: 1 Width: 64-bit Data Rate: 3200 MT/s

VirtualMemory physical capacity: 8588881920 num_ppages: 2096895
VirtualMemory page size: 4096 log2_page_size: 12

CPU 0 runs /datasets/cs240c-wi22-a00-public/data/Assignment2/soplex_217B.trace.xz
CPU 0 Bimodal branch predictor
Basic BTB sets: 1024 ways: 8 indirect buffer size: 4096 RAS size: 64
Initialize SRRIP state
Heartbeat CPU 0 instructions: 10000000 cycles: 2844434 heartbeat IPC: 3.51564 cumulative IPC: 3.51564 (Simulation time: 0 hr 0 min 35 sec) 

Warmup complete CPU 0 instructions: 10000004 cycles: 2844435 (Simulation time: 0 hr 0 min 35 sec) 

Heartbeat CPU 0 instructions: 20000000 cycles: 34861401 heartbeat IPC: 0.312334 cumulative IPC: 0.312334 (Simulation time: 0 hr 2 min 25 sec) 
Heartbeat CPU 0 instructions: 30000004 cycles: 65175763 heartbeat IPC: 0.329877 cumulative IPC: 0.320866 (Simulation time: 0 hr 4 min 14 sec) 
Heartbeat CPU 0 instructions: 40000003 cycles: 95743785 heartbeat IPC: 0.327139 cumulative IPC: 0.32293 (Simulation time: 0 hr 5 min 56 sec) 
Heartbeat CPU 0 instructions: 50000000 cycles: 124444205 heartbeat IPC: 0.348427 cumulative IPC: 0.328948 (Simulation time: 0 hr 7 min 36 sec) 
Heartbeat CPU 0 instructions: 60000002 cycles: 154515617 heartbeat IPC: 0.332542 cumulative IPC: 0.329661 (Simulation time: 0 hr 9 min 21 sec) 
Heartbeat CPU 0 instructions: 70000000 cycles: 199782209 heartbeat IPC: 0.220913 cumulative IPC: 0.304665 (Simulation time: 0 hr 11 min 56 sec) 
Heartbeat CPU 0 instructions: 80000000 cycles: 233066220 heartbeat IPC: 0.300445 cumulative IPC: 0.304055 (Simulation time: 0 hr 13 min 32 sec) 
Heartbeat CPU 0 instructions: 90000002 cycles: 262935914 heartbeat IPC: 0.334788 cumulative IPC: 0.307584 (Simulation time: 0 hr 15 min 23 sec) 
Heartbeat CPU 0 instructions: 100000001 cycles: 293740046 heartbeat IPC: 0.324632 cumulative IPC: 0.309389 (Simulation time: 0 hr 17 min 14 sec) 
Heartbeat CPU 0 instructions: 110000000 cycles: 322169512 heartbeat IPC: 0.351748 cumulative IPC: 0.31316 (Simulation time: 0 hr 18 min 44 sec) 
Finished CPU 0 instructions: 100000000 cycles: 319325079 cumulative IPC: 0.31316 (Simulation time: 0 hr 18 min 44 sec) 

ChampSim completed all CPUs

Region of Interest Statistics

CPU 0 cumulative IPC: 0.31316 instructions: 100000000 cycles: 319325079
cpu0_DTLB TOTAL     ACCESS:   21880740  HIT:   21015409  MISS:     865331
cpu0_DTLB LOAD      ACCESS:   16718776  HIT:   16033744  MISS:     685032
cpu0_DTLB RFO       ACCESS:    5161964  HIT:    4981665  MISS:     180299
cpu0_DTLB PREFETCH  ACCESS:          0  HIT:          0  MISS:          0
cpu0_DTLB WRITEBACK ACCESS:          0  HIT:          0  MISS:          0
cpu0_DTLB TRANSLATION ACCESS:          0  HIT:          0  MISS:          0
cpu0_DTLB PREFETCH  REQUESTED:          0  ISSUED:          0  USEFUL:          0  USELESS:          0
cpu0_DTLB AVERAGE MISS LATENCY: 14.4321 cycles
cpu0_ITLB TOTAL     ACCESS:    8462229  HIT:    8462211  MISS:         18
cpu0_ITLB LOAD      ACCESS:    8462229  HIT:    8462211  MISS:         18
cpu0_ITLB RFO       ACCESS:          0  HIT:          0  MISS:          0
cpu0_ITLB PREFETCH  ACCESS:          0  HIT:          0  MISS:          0
cpu0_ITLB WRITEBACK ACCESS:          0  HIT:          0  MISS:          0
cpu0_ITLB TRANSLATION ACCESS:          0  HIT:          0  MISS:          0
cpu0_ITLB PREFETCH  REQUESTED:          0  ISSUED:          0  USEFUL:          0  USELESS:          0
cpu0_ITLB AVERAGE MISS LATENCY: 212.444 cycles
cpu0_L1I TOTAL     ACCESS:     356052  HIT:     355399  MISS:        653
cpu0_L1I LOAD      ACCESS:     356052  HIT:     355399  MISS:        653
cpu0_L1I RFO       ACCESS:          0  HIT:          0  MISS:          0
cpu0_L1I PREFETCH  ACCESS:          0  HIT:          0  MISS:          0
cpu0_L1I WRITEBACK ACCESS:          0  HIT:          0  MISS:          0
cpu0_L1I TRANSLATION ACCESS:          0  HIT:          0  MISS:          0
cpu0_L1I PREFETCH  REQUESTED:          0  ISSUED:          0  USEFUL:          0  USELESS:          0
cpu0_L1I AVERAGE MISS LATENCY: 311.708 cycles
cpu0_STLB TOTAL     ACCESS:     865349  HIT:     741835  MISS:     123514
cpu0_STLB LOAD      ACCESS:     685050  HIT:     570888  MISS:     114162
cpu0_STLB RFO       ACCESS:     180299  HIT:     170947  MISS:       9352
cpu0_STLB PREFETCH  ACCESS:          0  HIT:          0  MISS:          0
cpu0_STLB WRITEBACK ACCESS:          0  HIT:          0  MISS:          0
cpu0_STLB TRANSLATION ACCESS:          0  HIT:          0  MISS:          0
cpu0_STLB PREFETCH  REQUESTED:          0  ISSUED:          0  USEFUL:          0  USELESS:          0
cpu0_STLB AVERAGE MISS LATENCY: 36.9227 cycles
cpu0_L1D TOTAL     ACCESS:   18195549  HIT:   12371566  MISS:    5823983
cpu0_L1D LOAD      ACCESS:   12236671  HIT:    7242348  MISS:    4994323
cpu0_L1D RFO       ACCESS:    5838926  HIT:    5014292  MISS:     824634
cpu0_L1D PREFETCH  ACCESS:          0  HIT:          0  MISS:          0
cpu0_L1D WRITEBACK ACCESS:          0  HIT:          0  MISS:          0
cpu0_L1D TRANSLATION ACCESS:     119952  HIT:     114926  MISS:       5026
cpu0_L1D PREFETCH  REQUESTED:          0  ISSUED:          0  USEFUL:          0  USELESS:          0
cpu0_L1D AVERAGE MISS LATENCY: 194.227 cycles
cpu0_L2C TOTAL     ACCESS:    8411757  HIT:    3954501  MISS:    4457256
cpu0_L2C LOAD      ACCESS:    4994394  HIT:    1232097  MISS:    3762297
cpu0_L2C RFO       ACCESS:     824568  HIT:     130463  MISS:     694105
cpu0_L2C PREFETCH  ACCESS:          0  HIT:          0  MISS:          0
cpu0_L2C WRITEBACK ACCESS:    2587769  HIT:    2587666  MISS:        103
cpu0_L2C TRANSLATION ACCESS:       5026  HIT:       4275  MISS:        751
cpu0_L2C PREFETCH  REQUESTED:          0  ISSUED:          0  USEFUL:          0  USELESS:          0
cpu0_L2C AVERAGE MISS LATENCY: 239.216 cycles
LLC TOTAL     ACCESS:    6308056  HIT:    3091993  MISS:    3216063
LLC LOAD      ACCESS:    3762277  HIT:    1456478  MISS:    2305799
LLC RFO       ACCESS:     694101  HIT:     265452  MISS:     428649
LLC PREFETCH  ACCESS:          0  HIT:          0  MISS:          0
LLC WRITEBACK ACCESS:    1850927  HIT:    1369712  MISS:     481215
LLC TRANSLATION ACCESS:        751  HIT:        351  MISS:        400
LLC PREFETCH  REQUESTED:          0  ISSUED:          0  USEFUL:          0  USELESS:          0
LLC AVERAGE MISS LATENCY: 301.995 cycles
Insertion Distribution: 
	LOAD 327054 0 0 290463 1985846 
	RFO 89756 0 0 86793 299042 
	PREF 0 0 0 0 0 
	WRITEBACK 0 0 0 0 581569 
	 9 0 0 175 263 
Total Prefetch Downgrades: 0

DRAM Statistics
 CHANNEL 0
 RQ ROW_BUFFER_HIT:     303742  ROW_BUFFER_MISS:    2428199
 DBUS AVG_CONGESTED_CYCLE:    3.94583
 WQ ROW_BUFFER_HIT:      51907  ROW_BUFFER_MISS:     877093  FULL:     313865


CPU 0 Branch Prediction Accuracy: 93.2069% MPKI: 14.28 Average ROB Occupancy at Mispredict: 50.1797
Branch type MPKI
BRANCH_DIRECT_JUMP: 0.00099
BRANCH_INDIRECT: 0.00023
BRANCH_CONDITIONAL: 14.2767
BRANCH_DIRECT_CALL: 0.00062
BRANCH_INDIRECT_CALL: 0.00054
BRANCH_RETURN: 0.00093

