
*** ChampSim Multicore Out-of-Order Simulator ***

Warmup Instructions: 10000000
Simulation Instructions: 100000000
Number of CPUs: 1
Off-chip DRAM Size: 4 GiB Channels: 1 Width: 64-bit Data Rate: 3200 MT/s

VirtualMemory physical capacity: 8588881920 num_ppages: 2096895
VirtualMemory page size: 4096 log2_page_size: 12

CPU 0 runs /datasets/cs240c-wi22-a00-public/data/Assignment2/sphinx3_883B.trace.xz
CPU 0 Bimodal branch predictor
Basic BTB sets: 1024 ways: 8 indirect buffer size: 4096 RAS size: 64
Initialize SRRIP state
Heartbeat CPU 0 instructions: 10000004 cycles: 2628880 heartbeat IPC: 3.8039 cumulative IPC: 3.8039 (Simulation time: 0 hr 0 min 34 sec) 

Warmup complete CPU 0 instructions: 10000004 cycles: 2628880 (Simulation time: 0 hr 0 min 34 sec) 

Heartbeat CPU 0 instructions: 20000002 cycles: 14801134 heartbeat IPC: 0.82154 cumulative IPC: 0.82154 (Simulation time: 0 hr 1 min 40 sec) 
Heartbeat CPU 0 instructions: 30000000 cycles: 27313455 heartbeat IPC: 0.799212 cumulative IPC: 0.810222 (Simulation time: 0 hr 2 min 47 sec) 
Heartbeat CPU 0 instructions: 40000004 cycles: 39157872 heartbeat IPC: 0.84428 cumulative IPC: 0.821265 (Simulation time: 0 hr 3 min 52 sec) 
Heartbeat CPU 0 instructions: 50000003 cycles: 50721384 heartbeat IPC: 0.864789 cumulative IPC: 0.83173 (Simulation time: 0 hr 4 min 56 sec) 
Heartbeat CPU 0 instructions: 60000000 cycles: 61703654 heartbeat IPC: 0.910558 cumulative IPC: 0.846385 (Simulation time: 0 hr 6 min 2 sec) 
Heartbeat CPU 0 instructions: 70000000 cycles: 70773244 heartbeat IPC: 1.10259 cumulative IPC: 0.880484 (Simulation time: 0 hr 7 min 0 sec) 
Heartbeat CPU 0 instructions: 80000000 cycles: 80927123 heartbeat IPC: 0.984845 cumulative IPC: 0.894017 (Simulation time: 0 hr 8 min 0 sec) 
Heartbeat CPU 0 instructions: 90000003 cycles: 89203978 heartbeat IPC: 1.20819 cumulative IPC: 0.924053 (Simulation time: 0 hr 8 min 54 sec) 
Heartbeat CPU 0 instructions: 100000003 cycles: 96860470 heartbeat IPC: 1.30608 cumulative IPC: 0.955094 (Simulation time: 0 hr 9 min 46 sec) 
Heartbeat CPU 0 instructions: 110000003 cycles: 106598871 heartbeat IPC: 1.02686 cumulative IPC: 0.961816 (Simulation time: 0 hr 10 min 45 sec) 
Finished CPU 0 instructions: 100000004 cycles: 103969992 cumulative IPC: 0.961816 (Simulation time: 0 hr 10 min 45 sec) 

ChampSim completed all CPUs

Region of Interest Statistics

CPU 0 cumulative IPC: 0.961816 instructions: 100000004 cycles: 103969992
cpu0_DTLB TOTAL     ACCESS:   16753919  HIT:   16593988  MISS:     159931
cpu0_DTLB LOAD      ACCESS:   15418335  HIT:   15266676  MISS:     151659
cpu0_DTLB RFO       ACCESS:    1335584  HIT:    1327312  MISS:       8272
cpu0_DTLB PREFETCH  ACCESS:          0  HIT:          0  MISS:          0
cpu0_DTLB WRITEBACK ACCESS:          0  HIT:          0  MISS:          0
cpu0_DTLB TRANSLATION ACCESS:          0  HIT:          0  MISS:          0
cpu0_DTLB PREFETCH  REQUESTED:          0  ISSUED:          0  USEFUL:          0  USELESS:          0
cpu0_DTLB AVERAGE MISS LATENCY: 12.8078 cycles
cpu0_ITLB TOTAL     ACCESS:    9406682  HIT:    9406617  MISS:         65
cpu0_ITLB LOAD      ACCESS:    9406682  HIT:    9406617  MISS:         65
cpu0_ITLB RFO       ACCESS:          0  HIT:          0  MISS:          0
cpu0_ITLB PREFETCH  ACCESS:          0  HIT:          0  MISS:          0
cpu0_ITLB WRITEBACK ACCESS:          0  HIT:          0  MISS:          0
cpu0_ITLB TRANSLATION ACCESS:          0  HIT:          0  MISS:          0
cpu0_ITLB PREFETCH  REQUESTED:          0  ISSUED:          0  USEFUL:          0  USELESS:          0
cpu0_ITLB AVERAGE MISS LATENCY: 157.4 cycles
cpu0_L1I TOTAL     ACCESS:     192490  HIT:     191110  MISS:       1380
cpu0_L1I LOAD      ACCESS:     192490  HIT:     191110  MISS:       1380
cpu0_L1I RFO       ACCESS:          0  HIT:          0  MISS:          0
cpu0_L1I PREFETCH  ACCESS:          0  HIT:          0  MISS:          0
cpu0_L1I WRITEBACK ACCESS:          0  HIT:          0  MISS:          0
cpu0_L1I TRANSLATION ACCESS:          0  HIT:          0  MISS:          0
cpu0_L1I PREFETCH  REQUESTED:          0  ISSUED:          0  USEFUL:          0  USELESS:          0
cpu0_L1I AVERAGE MISS LATENCY: 200.217 cycles
cpu0_STLB TOTAL     ACCESS:     159996  HIT:      99100  MISS:      60896
cpu0_STLB LOAD      ACCESS:     151724  HIT:      92052  MISS:      59672
cpu0_STLB RFO       ACCESS:       8272  HIT:       7048  MISS:       1224
cpu0_STLB PREFETCH  ACCESS:          0  HIT:          0  MISS:          0
cpu0_STLB WRITEBACK ACCESS:          0  HIT:          0  MISS:          0
cpu0_STLB TRANSLATION ACCESS:          0  HIT:          0  MISS:          0
cpu0_STLB PREFETCH  REQUESTED:          0  ISSUED:          0  USEFUL:          0  USELESS:          0
cpu0_STLB AVERAGE MISS LATENCY: 10.0326 cycles
cpu0_L1D TOTAL     ACCESS:   12855089  HIT:   11105800  MISS:    1749289
cpu0_L1D LOAD      ACCESS:   10619876  HIT:    8985514  MISS:    1634362
cpu0_L1D RFO       ACCESS:    2177098  HIT:    2062965  MISS:     114133
cpu0_L1D PREFETCH  ACCESS:          0  HIT:          0  MISS:          0
cpu0_L1D WRITEBACK ACCESS:          0  HIT:          0  MISS:          0
cpu0_L1D TRANSLATION ACCESS:      58115  HIT:      57321  MISS:        794
cpu0_L1D PREFETCH  REQUESTED:          0  ISSUED:          0  USEFUL:          0  USELESS:          0
cpu0_L1D AVERAGE MISS LATENCY: 107.889 cycles
cpu0_L2C TOTAL     ACCESS:    1908247  HIT:     517670  MISS:    1390577
cpu0_L2C LOAD      ACCESS:    1635739  HIT:     346924  MISS:    1288815
cpu0_L2C RFO       ACCESS:     114129  HIT:      12986  MISS:     101143
cpu0_L2C PREFETCH  ACCESS:          0  HIT:          0  MISS:          0
cpu0_L2C WRITEBACK ACCESS:     157585  HIT:     157288  MISS:        297
cpu0_L2C TRANSLATION ACCESS:        794  HIT:        472  MISS:        322
cpu0_L2C PREFETCH  REQUESTED:          0  ISSUED:          0  USEFUL:          0  USELESS:          0
cpu0_L2C AVERAGE MISS LATENCY: 122.012 cycles
LLC TOTAL     ACCESS:    1524815  HIT:     795475  MISS:     729340
LLC LOAD      ACCESS:    1288815  HIT:     629802  MISS:     659013
LLC RFO       ACCESS:     101143  HIT:      64318  MISS:      36825
LLC PREFETCH  ACCESS:          0  HIT:          0  MISS:          0
LLC WRITEBACK ACCESS:     134535  HIT:     101062  MISS:      33473
LLC TRANSLATION ACCESS:        322  HIT:        293  MISS:         29
LLC PREFETCH  REQUESTED:          0  ISSUED:          0  USEFUL:          0  USELESS:          0
LLC AVERAGE MISS LATENCY: 192.578 cycles
Insertion Distribution: 
	LOAD 31372 0 0 134073 612506 
	RFO 2498 0 0 11904 28097 
	PREF 0 0 0 0 0 
	WRITEBACK 0 0 0 0 33878 
	 0 0 0 37 7 
Total Prefetch Downgrades: 0

DRAM Statistics
 CHANNEL 0
 RQ ROW_BUFFER_HIT:      77399  ROW_BUFFER_MISS:     618226
 DBUS AVG_CONGESTED_CYCLE:    3.79924
 WQ ROW_BUFFER_HIT:      16185  ROW_BUFFER_MISS:      31087  FULL:      10740


CPU 0 Branch Prediction Accuracy: 91.645% MPKI: 7.87682 Average ROB Occupancy at Mispredict: 155.089
Branch type MPKI
BRANCH_DIRECT_JUMP: 0.0017
BRANCH_INDIRECT: 0.00111
BRANCH_CONDITIONAL: 7.87013
BRANCH_DIRECT_CALL: 0.00166
BRANCH_INDIRECT_CALL: 0.0005
BRANCH_RETURN: 0.00172

