
*** ChampSim Multicore Out-of-Order Simulator ***

Warmup Instructions: 10000000
Simulation Instructions: 100000000
Number of CPUs: 1
Off-chip DRAM Size: 4 GiB Channels: 1 Width: 64-bit Data Rate: 3200 MT/s

VirtualMemory physical capacity: 8588881920 num_ppages: 2096895
VirtualMemory page size: 4096 log2_page_size: 12

CPU 0 runs /datasets/cs240c-wi22-a00-public/data/Assignment2/wrf_1228B.trace.xz
CPU 0 Bimodal branch predictor
Basic BTB sets: 1024 ways: 8 indirect buffer size: 4096 RAS size: 64
Initialize SRRIP state
Heartbeat CPU 0 instructions: 10000001 cycles: 3904493 heartbeat IPC: 2.56115 cumulative IPC: 2.56115 (Simulation time: 0 hr 1 min 1 sec) 

Warmup complete CPU 0 instructions: 10000001 cycles: 3904493 (Simulation time: 0 hr 1 min 1 sec) 

Heartbeat CPU 0 instructions: 20000001 cycles: 12229311 heartbeat IPC: 1.20123 cumulative IPC: 1.20123 (Simulation time: 0 hr 2 min 19 sec) 
Heartbeat CPU 0 instructions: 30000003 cycles: 23909418 heartbeat IPC: 0.856157 cumulative IPC: 0.999754 (Simulation time: 0 hr 3 min 58 sec) 
Heartbeat CPU 0 instructions: 40000000 cycles: 37550121 heartbeat IPC: 0.7331 cumulative IPC: 0.891646 (Simulation time: 0 hr 5 min 53 sec) 
Heartbeat CPU 0 instructions: 50000001 cycles: 45674424 heartbeat IPC: 1.23087 cumulative IPC: 0.957627 (Simulation time: 0 hr 7 min 11 sec) 
Heartbeat CPU 0 instructions: 60000003 cycles: 55944041 heartbeat IPC: 0.973746 cumulative IPC: 0.960808 (Simulation time: 0 hr 8 min 43 sec) 
Heartbeat CPU 0 instructions: 70000001 cycles: 67754185 heartbeat IPC: 0.84673 cumulative IPC: 0.939707 (Simulation time: 0 hr 10 min 11 sec) 
Heartbeat CPU 0 instructions: 80000004 cycles: 77464178 heartbeat IPC: 1.02987 cumulative IPC: 0.951608 (Simulation time: 0 hr 11 min 19 sec) 
Heartbeat CPU 0 instructions: 90000001 cycles: 87149173 heartbeat IPC: 1.03252 cumulative IPC: 0.961022 (Simulation time: 0 hr 12 min 27 sec) 
Heartbeat CPU 0 instructions: 100000002 cycles: 96827513 heartbeat IPC: 1.03324 cumulative IPC: 0.968544 (Simulation time: 0 hr 13 min 34 sec) 
Heartbeat CPU 0 instructions: 110000000 cycles: 106497676 heartbeat IPC: 1.03411 cumulative IPC: 0.974724 (Simulation time: 0 hr 14 min 41 sec) 
Finished CPU 0 instructions: 100000004 cycles: 102593184 cumulative IPC: 0.974724 (Simulation time: 0 hr 14 min 41 sec) 

ChampSim completed all CPUs

Region of Interest Statistics

CPU 0 cumulative IPC: 0.974724 instructions: 100000004 cycles: 102593184
cpu0_DTLB TOTAL     ACCESS:   19671490  HIT:   19575252  MISS:      96238
cpu0_DTLB LOAD      ACCESS:   17659551  HIT:   17577621  MISS:      81930
cpu0_DTLB RFO       ACCESS:    2011939  HIT:    1997631  MISS:      14308
cpu0_DTLB PREFETCH  ACCESS:          0  HIT:          0  MISS:          0
cpu0_DTLB WRITEBACK ACCESS:          0  HIT:          0  MISS:          0
cpu0_DTLB TRANSLATION ACCESS:          0  HIT:          0  MISS:          0
cpu0_DTLB PREFETCH  REQUESTED:          0  ISSUED:          0  USEFUL:          0  USELESS:          0
cpu0_DTLB AVERAGE MISS LATENCY: 20.0526 cycles
cpu0_ITLB TOTAL     ACCESS:    4196327  HIT:    4196315  MISS:         12
cpu0_ITLB LOAD      ACCESS:    4196327  HIT:    4196315  MISS:         12
cpu0_ITLB RFO       ACCESS:          0  HIT:          0  MISS:          0
cpu0_ITLB PREFETCH  ACCESS:          0  HIT:          0  MISS:          0
cpu0_ITLB WRITEBACK ACCESS:          0  HIT:          0  MISS:          0
cpu0_ITLB TRANSLATION ACCESS:          0  HIT:          0  MISS:          0
cpu0_ITLB PREFETCH  REQUESTED:          0  ISSUED:          0  USEFUL:          0  USELESS:          0
cpu0_ITLB AVERAGE MISS LATENCY: 220.583 cycles
cpu0_L1I TOTAL     ACCESS:    6673334  HIT:    6672586  MISS:        748
cpu0_L1I LOAD      ACCESS:    6673334  HIT:    6672586  MISS:        748
cpu0_L1I RFO       ACCESS:          0  HIT:          0  MISS:          0
cpu0_L1I PREFETCH  ACCESS:          0  HIT:          0  MISS:          0
cpu0_L1I WRITEBACK ACCESS:          0  HIT:          0  MISS:          0
cpu0_L1I TRANSLATION ACCESS:          0  HIT:          0  MISS:          0
cpu0_L1I PREFETCH  REQUESTED:          0  ISSUED:          0  USEFUL:          0  USELESS:          0
cpu0_L1I AVERAGE MISS LATENCY: 363.647 cycles
cpu0_STLB TOTAL     ACCESS:      96250  HIT:      86696  MISS:       9554
cpu0_STLB LOAD      ACCESS:      81942  HIT:      75034  MISS:       6908
cpu0_STLB RFO       ACCESS:      14308  HIT:      11662  MISS:       2646
cpu0_STLB PREFETCH  ACCESS:          0  HIT:          0  MISS:          0
cpu0_STLB WRITEBACK ACCESS:          0  HIT:          0  MISS:          0
cpu0_STLB TRANSLATION ACCESS:          0  HIT:          0  MISS:          0
cpu0_STLB PREFETCH  REQUESTED:          0  ISSUED:          0  USEFUL:          0  USELESS:          0
cpu0_STLB AVERAGE MISS LATENCY: 111.58 cycles
cpu0_L1D TOTAL     ACCESS:   18909431  HIT:   17551030  MISS:    1358401
cpu0_L1D LOAD      ACCESS:   14862600  HIT:   13763537  MISS:    1099063
cpu0_L1D RFO       ACCESS:    4037286  HIT:    3778735  MISS:     258551
cpu0_L1D PREFETCH  ACCESS:          0  HIT:          0  MISS:          0
cpu0_L1D WRITEBACK ACCESS:          0  HIT:          0  MISS:          0
cpu0_L1D TRANSLATION ACCESS:       9545  HIT:       8758  MISS:        787
cpu0_L1D PREFETCH  REQUESTED:          0  ISSUED:          0  USEFUL:          0  USELESS:          0
cpu0_L1D AVERAGE MISS LATENCY: 214.12 cycles
cpu0_L2C TOTAL     ACCESS:    1836361  HIT:     802924  MISS:    1033437
cpu0_L2C LOAD      ACCESS:    1099779  HIT:     287155  MISS:     812624
cpu0_L2C RFO       ACCESS:     258546  HIT:      39530  MISS:     219016
cpu0_L2C PREFETCH  ACCESS:          0  HIT:          0  MISS:          0
cpu0_L2C WRITEBACK ACCESS:     477249  HIT:     475565  MISS:       1684
cpu0_L2C TRANSLATION ACCESS:        787  HIT:        674  MISS:        113
cpu0_L2C PREFETCH  REQUESTED:          0  ISSUED:          0  USEFUL:          0  USELESS:          0
cpu0_L2C AVERAGE MISS LATENCY: 267.225 cycles
LLC TOTAL     ACCESS:    1463811  HIT:     418091  MISS:    1045720
LLC LOAD      ACCESS:     812624  HIT:     168518  MISS:     644106
LLC RFO       ACCESS:     219016  HIT:      39026  MISS:     179990
LLC PREFETCH  ACCESS:          0  HIT:          0  MISS:          0
LLC WRITEBACK ACCESS:     432058  HIT:     210495  MISS:     221563
LLC TRANSLATION ACCESS:        113  HIT:         52  MISS:         61
LLC PREFETCH  REQUESTED:          0  ISSUED:          0  USEFUL:          0  USELESS:          0
LLC AVERAGE MISS LATENCY: 243.337 cycles
Insertion Distribution: 
	LOAD 40065 0 0 123732 648285 
	RFO 28708 0 0 59705 166683 
	PREF 0 0 0 0 0 
	WRITEBACK 0 0 0 0 282398 
	 3 0 0 57 28 
Total Prefetch Downgrades: 0

DRAM Statistics
 CHANNEL 0
 RQ ROW_BUFFER_HIT:      97089  ROW_BUFFER_MISS:     726666
 DBUS AVG_CONGESTED_CYCLE:    3.92976
 WQ ROW_BUFFER_HIT:      28044  ROW_BUFFER_MISS:     277064  FULL:      40497


CPU 0 Branch Prediction Accuracy: 97.4481% MPKI: 2.04611 Average ROB Occupancy at Mispredict: 259.356
Branch type MPKI
BRANCH_DIRECT_JUMP: 0.00028
BRANCH_INDIRECT: 0
BRANCH_CONDITIONAL: 2.0456
BRANCH_DIRECT_CALL: 0.00011
BRANCH_INDIRECT_CALL: 0
BRANCH_RETURN: 0.00012

