
*** ChampSim Multicore Out-of-Order Simulator ***

Warmup Instructions: 10000000
Simulation Instructions: 100000000
Number of CPUs: 1
Off-chip DRAM Size: 4 GiB Channels: 1 Width: 64-bit Data Rate: 3200 MT/s

VirtualMemory physical capacity: 8588881920 num_ppages: 2096895
VirtualMemory page size: 4096 log2_page_size: 12

CPU 0 runs /datasets/cs240c-wi22-a00-public/data/Assignment2/zeusmp_100B.trace.xz
CPU 0 Bimodal branch predictor
Basic BTB sets: 1024 ways: 8 indirect buffer size: 4096 RAS size: 64
Initialize SRRIP state
Heartbeat CPU 0 instructions: 10000000 cycles: 2533557 heartbeat IPC: 3.94702 cumulative IPC: 3.94702 (Simulation time: 0 hr 0 min 29 sec) 

Warmup complete CPU 0 instructions: 10000004 cycles: 2533558 (Simulation time: 0 hr 0 min 29 sec) 

Heartbeat CPU 0 instructions: 20000003 cycles: 8022349 heartbeat IPC: 1.8219 cumulative IPC: 1.82189 (Simulation time: 0 hr 1 min 25 sec) 
Heartbeat CPU 0 instructions: 30000000 cycles: 13943068 heartbeat IPC: 1.68898 cumulative IPC: 1.75292 (Simulation time: 0 hr 2 min 24 sec) 
Heartbeat CPU 0 instructions: 40000004 cycles: 19867620 heartbeat IPC: 1.68789 cumulative IPC: 1.7307 (Simulation time: 0 hr 3 min 24 sec) 
Heartbeat CPU 0 instructions: 50000001 cycles: 25759661 heartbeat IPC: 1.6972 cumulative IPC: 1.7222 (Simulation time: 0 hr 4 min 25 sec) 
Heartbeat CPU 0 instructions: 60000004 cycles: 31675241 heartbeat IPC: 1.69045 cumulative IPC: 1.71576 (Simulation time: 0 hr 5 min 25 sec) 
Heartbeat CPU 0 instructions: 70000001 cycles: 37557538 heartbeat IPC: 1.70002 cumulative IPC: 1.71311 (Simulation time: 0 hr 6 min 25 sec) 
Heartbeat CPU 0 instructions: 80000001 cycles: 43473141 heartbeat IPC: 1.69044 cumulative IPC: 1.70984 (Simulation time: 0 hr 7 min 24 sec) 
Heartbeat CPU 0 instructions: 90000000 cycles: 49386478 heartbeat IPC: 1.69109 cumulative IPC: 1.70747 (Simulation time: 0 hr 8 min 23 sec) 
Heartbeat CPU 0 instructions: 100000000 cycles: 55272145 heartbeat IPC: 1.69904 cumulative IPC: 1.70653 (Simulation time: 0 hr 9 min 23 sec) 
Heartbeat CPU 0 instructions: 110000003 cycles: 61192391 heartbeat IPC: 1.68912 cumulative IPC: 1.70477 (Simulation time: 0 hr 10 min 23 sec) 
Finished CPU 0 instructions: 100000004 cycles: 58658834 cumulative IPC: 1.70477 (Simulation time: 0 hr 10 min 23 sec) 

ChampSim completed all CPUs

Region of Interest Statistics

CPU 0 cumulative IPC: 1.70477 instructions: 100000004 cycles: 58658834
cpu0_DTLB TOTAL     ACCESS:   16444076  HIT:   12279596  MISS:    4164480
cpu0_DTLB LOAD      ACCESS:   11965430  HIT:    9308101  MISS:    2657329
cpu0_DTLB RFO       ACCESS:    4478646  HIT:    2971495  MISS:    1507151
cpu0_DTLB PREFETCH  ACCESS:          0  HIT:          0  MISS:          0
cpu0_DTLB WRITEBACK ACCESS:          0  HIT:          0  MISS:          0
cpu0_DTLB TRANSLATION ACCESS:          0  HIT:          0  MISS:          0
cpu0_DTLB PREFETCH  REQUESTED:          0  ISSUED:          0  USEFUL:          0  USELESS:          0
cpu0_DTLB AVERAGE MISS LATENCY: 10.4084 cycles
cpu0_ITLB TOTAL     ACCESS:    2227442  HIT:    2227441  MISS:          1
cpu0_ITLB LOAD      ACCESS:    2227442  HIT:    2227441  MISS:          1
cpu0_ITLB RFO       ACCESS:          0  HIT:          0  MISS:          0
cpu0_ITLB PREFETCH  ACCESS:          0  HIT:          0  MISS:          0
cpu0_ITLB WRITEBACK ACCESS:          0  HIT:          0  MISS:          0
cpu0_ITLB TRANSLATION ACCESS:          0  HIT:          0  MISS:          0
cpu0_ITLB PREFETCH  REQUESTED:          0  ISSUED:          0  USEFUL:          0  USELESS:          0
cpu0_ITLB AVERAGE MISS LATENCY: 412 cycles
cpu0_L1I TOTAL     ACCESS:    3117549  HIT:    3117498  MISS:         51
cpu0_L1I LOAD      ACCESS:    3117549  HIT:    3117498  MISS:         51
cpu0_L1I RFO       ACCESS:          0  HIT:          0  MISS:          0
cpu0_L1I PREFETCH  ACCESS:          0  HIT:          0  MISS:          0
cpu0_L1I WRITEBACK ACCESS:          0  HIT:          0  MISS:          0
cpu0_L1I TRANSLATION ACCESS:          0  HIT:          0  MISS:          0
cpu0_L1I PREFETCH  REQUESTED:          0  ISSUED:          0  USEFUL:          0  USELESS:          0
cpu0_L1I AVERAGE MISS LATENCY: 316.137 cycles
cpu0_STLB TOTAL     ACCESS:    4164481  HIT:    4156042  MISS:       8439
cpu0_STLB LOAD      ACCESS:    2657330  HIT:    2652167  MISS:       5163
cpu0_STLB RFO       ACCESS:    1507151  HIT:    1503875  MISS:       3276
cpu0_STLB PREFETCH  ACCESS:          0  HIT:          0  MISS:          0
cpu0_STLB WRITEBACK ACCESS:          0  HIT:          0  MISS:          0
cpu0_STLB TRANSLATION ACCESS:          0  HIT:          0  MISS:          0
cpu0_STLB PREFETCH  REQUESTED:          0  ISSUED:          0  USEFUL:          0  USELESS:          0
cpu0_STLB AVERAGE MISS LATENCY: 558.724 cycles
cpu0_L1D TOTAL     ACCESS:   19020389  HIT:   13985906  MISS:    5034483
cpu0_L1D LOAD      ACCESS:   12125268  HIT:    8890619  MISS:    3234649
cpu0_L1D RFO       ACCESS:    6886785  HIT:    5094648  MISS:    1792137
cpu0_L1D PREFETCH  ACCESS:          0  HIT:          0  MISS:          0
cpu0_L1D WRITEBACK ACCESS:          0  HIT:          0  MISS:          0
cpu0_L1D TRANSLATION ACCESS:       8336  HIT:        639  MISS:       7697
cpu0_L1D PREFETCH  REQUESTED:          0  ISSUED:          0  USEFUL:          0  USELESS:          0
cpu0_L1D AVERAGE MISS LATENCY: 86.4266 cycles
cpu0_L2C TOTAL     ACCESS:    6855177  HIT:    6267649  MISS:     587528
cpu0_L2C LOAD      ACCESS:    3234423  HIT:    2840441  MISS:     393982
cpu0_L2C RFO       ACCESS:    1790631  HIT:    1597369  MISS:     193262
cpu0_L2C PREFETCH  ACCESS:          0  HIT:          0  MISS:          0
cpu0_L2C WRITEBACK ACCESS:    1822426  HIT:    1822149  MISS:        277
cpu0_L2C TRANSLATION ACCESS:       7697  HIT:       7690  MISS:          7
cpu0_L2C PREFETCH  REQUESTED:          0  ISSUED:          0  USEFUL:          0  USELESS:          0
cpu0_L2C AVERAGE MISS LATENCY: 645.466 cycles
LLC TOTAL     ACCESS:     780576  HIT:      95751  MISS:     684825
LLC LOAD      ACCESS:     393982  HIT:      88138  MISS:     305844
LLC RFO       ACCESS:     193262  HIT:          0  MISS:     193262
LLC PREFETCH  ACCESS:          0  HIT:          0  MISS:          0
LLC WRITEBACK ACCESS:     193325  HIT:       7611  MISS:     185714
LLC TRANSLATION ACCESS:          7  HIT:          2  MISS:          5
LLC PREFETCH  REQUESTED:          0  ISSUED:          0  USEFUL:          0  USELESS:          0
LLC AVERAGE MISS LATENCY: 535.753 cycles
Insertion Distribution: 
	LOAD 90256 0 0 38458 206236 
	RFO 0 0 0 12836 191903 
	PREF 0 0 0 0 0 
	WRITEBACK 0 0 0 0 186797 
	 1 0 0 24 2 
Total Prefetch Downgrades: 0

DRAM Statistics
 CHANNEL 0
 RQ ROW_BUFFER_HIT:        174  ROW_BUFFER_MISS:     498937
 DBUS AVG_CONGESTED_CYCLE:    3.99927
 WQ ROW_BUFFER_HIT:        334  ROW_BUFFER_MISS:     199935  FULL:          0


CPU 0 Branch Prediction Accuracy: 99.0158% MPKI: 0.52371 Average ROB Occupancy at Mispredict: 235.798
Branch type MPKI
BRANCH_DIRECT_JUMP: 1e-05
BRANCH_INDIRECT: 0
BRANCH_CONDITIONAL: 0.5237
BRANCH_DIRECT_CALL: 0
BRANCH_INDIRECT_CALL: 0
BRANCH_RETURN: 0

