
*** ChampSim Multicore Out-of-Order Simulator ***

Warmup Instructions: 10000000
Simulation Instructions: 100000000
Number of CPUs: 1
Off-chip DRAM Size: 4 GiB Channels: 1 Width: 64-bit Data Rate: 3200 MT/s

VirtualMemory physical capacity: 8588881920 num_ppages: 2096895
VirtualMemory page size: 4096 log2_page_size: 12

CPU 0 runs /datasets/cs240c-wi22-a00-public/data/Assignment2/tonto_422B.trace.xz
CPU 0 Bimodal branch predictor
Basic BTB sets: 1024 ways: 8 indirect buffer size: 4096 RAS size: 64
Initialize SRRIP state
Heartbeat CPU 0 instructions: 10000003 cycles: 2501969 heartbeat IPC: 3.99685 cumulative IPC: 3.99685 (Simulation time: 0 hr 0 min 26 sec) 

Warmup complete CPU 0 instructions: 10000003 cycles: 2501969 (Simulation time: 0 hr 0 min 26 sec) 

Heartbeat CPU 0 instructions: 20000000 cycles: 8975831 heartbeat IPC: 1.54467 cumulative IPC: 1.54467 (Simulation time: 0 hr 1 min 2 sec) 
Heartbeat CPU 0 instructions: 30000000 cycles: 15445583 heartbeat IPC: 1.54565 cumulative IPC: 1.54516 (Simulation time: 0 hr 1 min 38 sec) 
Heartbeat CPU 0 instructions: 40000002 cycles: 22042140 heartbeat IPC: 1.51594 cumulative IPC: 1.5353 (Simulation time: 0 hr 2 min 14 sec) 
Heartbeat CPU 0 instructions: 50000000 cycles: 29706504 heartbeat IPC: 1.30474 cumulative IPC: 1.47034 (Simulation time: 0 hr 2 min 54 sec) 
Heartbeat CPU 0 instructions: 60000000 cycles: 36868329 heartbeat IPC: 1.39629 cumulative IPC: 1.45491 (Simulation time: 0 hr 3 min 40 sec) 
Heartbeat CPU 0 instructions: 70000004 cycles: 43765935 heartbeat IPC: 1.44978 cumulative IPC: 1.45405 (Simulation time: 0 hr 4 min 23 sec) 
Heartbeat CPU 0 instructions: 80000004 cycles: 50270266 heartbeat IPC: 1.53744 cumulative IPC: 1.46541 (Simulation time: 0 hr 5 min 5 sec) 
Heartbeat CPU 0 instructions: 90000000 cycles: 57059081 heartbeat IPC: 1.47301 cumulative IPC: 1.46635 (Simulation time: 0 hr 5 min 49 sec) 
Heartbeat CPU 0 instructions: 100000002 cycles: 63673140 heartbeat IPC: 1.51193 cumulative IPC: 1.47128 (Simulation time: 0 hr 6 min 33 sec) 
Heartbeat CPU 0 instructions: 110000001 cycles: 70338706 heartbeat IPC: 1.50025 cumulative IPC: 1.47413 (Simulation time: 0 hr 7 min 13 sec) 
Finished CPU 0 instructions: 100000003 cycles: 67836738 cumulative IPC: 1.47413 (Simulation time: 0 hr 7 min 13 sec) 

ChampSim completed all CPUs

Region of Interest Statistics

CPU 0 cumulative IPC: 1.47413 instructions: 100000003 cycles: 67836738
cpu0_DTLB TOTAL     ACCESS:   12824153  HIT:   12787882  MISS:      36271
cpu0_DTLB LOAD      ACCESS:    9458852  HIT:    9432416  MISS:      26436
cpu0_DTLB RFO       ACCESS:    3365301  HIT:    3355466  MISS:       9835
cpu0_DTLB PREFETCH  ACCESS:          0  HIT:          0  MISS:          0
cpu0_DTLB WRITEBACK ACCESS:          0  HIT:          0  MISS:          0
cpu0_DTLB TRANSLATION ACCESS:          0  HIT:          0  MISS:          0
cpu0_DTLB PREFETCH  REQUESTED:          0  ISSUED:          0  USEFUL:          0  USELESS:          0
cpu0_DTLB AVERAGE MISS LATENCY: 13.421 cycles
cpu0_ITLB TOTAL     ACCESS:    4154363  HIT:    4154332  MISS:         31
cpu0_ITLB LOAD      ACCESS:    4154363  HIT:    4154332  MISS:         31
cpu0_ITLB RFO       ACCESS:          0  HIT:          0  MISS:          0
cpu0_ITLB PREFETCH  ACCESS:          0  HIT:          0  MISS:          0
cpu0_ITLB WRITEBACK ACCESS:          0  HIT:          0  MISS:          0
cpu0_ITLB TRANSLATION ACCESS:          0  HIT:          0  MISS:          0
cpu0_ITLB PREFETCH  REQUESTED:          0  ISSUED:          0  USEFUL:          0  USELESS:          0
cpu0_ITLB AVERAGE MISS LATENCY: 210.258 cycles
cpu0_L1I TOTAL     ACCESS:    6343676  HIT:    6342560  MISS:       1116
cpu0_L1I LOAD      ACCESS:    6343676  HIT:    6342560  MISS:       1116
cpu0_L1I RFO       ACCESS:          0  HIT:          0  MISS:          0
cpu0_L1I PREFETCH  ACCESS:          0  HIT:          0  MISS:          0
cpu0_L1I WRITEBACK ACCESS:          0  HIT:          0  MISS:          0
cpu0_L1I TRANSLATION ACCESS:          0  HIT:          0  MISS:          0
cpu0_L1I PREFETCH  REQUESTED:          0  ISSUED:          0  USEFUL:          0  USELESS:          0
cpu0_L1I AVERAGE MISS LATENCY: 194.855 cycles
cpu0_STLB TOTAL     ACCESS:      36302  HIT:      35640  MISS:        662
cpu0_STLB LOAD      ACCESS:      26467  HIT:      26421  MISS:         46
cpu0_STLB RFO       ACCESS:       9835  HIT:       9219  MISS:        616
cpu0_STLB PREFETCH  ACCESS:          0  HIT:          0  MISS:          0
cpu0_STLB WRITEBACK ACCESS:          0  HIT:          0  MISS:          0
cpu0_STLB TRANSLATION ACCESS:          0  HIT:          0  MISS:          0
cpu0_STLB PREFETCH  REQUESTED:          0  ISSUED:          0  USEFUL:          0  USELESS:          0
cpu0_STLB AVERAGE MISS LATENCY: 251.4 cycles
cpu0_L1D TOTAL     ACCESS:   13827028  HIT:   12612695  MISS:    1214333
cpu0_L1D LOAD      ACCESS:    7741148  HIT:    6944192  MISS:     796956
cpu0_L1D RFO       ACCESS:    6085221  HIT:    5667857  MISS:     417364
cpu0_L1D PREFETCH  ACCESS:          0  HIT:          0  MISS:          0
cpu0_L1D WRITEBACK ACCESS:          0  HIT:          0  MISS:          0
cpu0_L1D TRANSLATION ACCESS:        659  HIT:        646  MISS:         13
cpu0_L1D PREFETCH  REQUESTED:          0  ISSUED:          0  USEFUL:          0  USELESS:          0
cpu0_L1D AVERAGE MISS LATENCY: 77.9991 cycles
cpu0_L2C TOTAL     ACCESS:    1652878  HIT:     826623  MISS:     826255
cpu0_L2C LOAD      ACCESS:     798072  HIT:     213912  MISS:     584160
cpu0_L2C RFO       ACCESS:     417364  HIT:     175311  MISS:     242053
cpu0_L2C PREFETCH  ACCESS:          0  HIT:          0  MISS:          0
cpu0_L2C WRITEBACK ACCESS:     437429  HIT:     437396  MISS:         33
cpu0_L2C TRANSLATION ACCESS:         13  HIT:          4  MISS:          9
cpu0_L2C PREFETCH  REQUESTED:          0  ISSUED:          0  USEFUL:          0  USELESS:          0
cpu0_L2C AVERAGE MISS LATENCY: 98.6742 cycles
LLC TOTAL     ACCESS:    1191288  HIT:     957360  MISS:     233928
LLC LOAD      ACCESS:     584111  HIT:     442332  MISS:     141779
LLC RFO       ACCESS:     242053  HIT:     186361  MISS:      55692
LLC PREFETCH  ACCESS:          0  HIT:          0  MISS:          0
LLC WRITEBACK ACCESS:     365115  HIT:     328659  MISS:      36456
LLC TRANSLATION ACCESS:          9  HIT:          8  MISS:          1
LLC PREFETCH  REQUESTED:          0  ISSUED:          0  USEFUL:          0  USELESS:          0
LLC AVERAGE MISS LATENCY: 274.221 cycles
Insertion Distribution: 
	LOAD 26073 0 69904 60102 
	RFO 6451 0 36615 15926 
	PREF 0 0 0 0 
	WRITEBACK 0 0 0 36456 
	 0 0 10 0 
Total Prefetch Downgrades: 0

DRAM Statistics
 CHANNEL 0
 RQ ROW_BUFFER_HIT:      30929  ROW_BUFFER_MISS:     166076
 DBUS AVG_CONGESTED_CYCLE:    3.96645
 WQ ROW_BUFFER_HIT:      18196  ROW_BUFFER_MISS:     109720  FULL:      17028


CPU 0 Branch Prediction Accuracy: 95.8021% MPKI: 4.07385 Average ROB Occupancy at Mispredict: 71.5704
Branch type MPKI
BRANCH_DIRECT_JUMP: 0.00041
BRANCH_INDIRECT: 5e-05
BRANCH_CONDITIONAL: 4.07099
BRANCH_DIRECT_CALL: 0.00126
BRANCH_INDIRECT_CALL: 0
BRANCH_RETURN: 0.00114

