
*** ChampSim Multicore Out-of-Order Simulator ***

Warmup Instructions: 10000000
Simulation Instructions: 100000000
Number of CPUs: 1
Off-chip DRAM Size: 4 GiB Channels: 1 Width: 64-bit Data Rate: 3200 MT/s

VirtualMemory physical capacity: 8588881920 num_ppages: 2096895
VirtualMemory page size: 4096 log2_page_size: 12

CPU 0 runs /datasets/cs240c-wi22-a00-public/data/Assignment2/astar_23B.trace.xz
CPU 0 Bimodal branch predictor
Basic BTB sets: 1024 ways: 8 indirect buffer size: 4096 RAS size: 64
Initialize SRRIP state
Heartbeat CPU 0 instructions: 10000002 cycles: 2670768 heartbeat IPC: 3.74424 cumulative IPC: 3.74424 (Simulation time: 0 hr 0 min 40 sec) 

Warmup complete CPU 0 instructions: 10000002 cycles: 2670768 (Simulation time: 0 hr 0 min 40 sec) 

Heartbeat CPU 0 instructions: 20000003 cycles: 25682763 heartbeat IPC: 0.434556 cumulative IPC: 0.434556 (Simulation time: 0 hr 1 min 30 sec) 
Heartbeat CPU 0 instructions: 30000000 cycles: 50205026 heartbeat IPC: 0.407793 cumulative IPC: 0.420749 (Simulation time: 0 hr 2 min 22 sec) 
Heartbeat CPU 0 instructions: 40000002 cycles: 75091684 heartbeat IPC: 0.401822 cumulative IPC: 0.414245 (Simulation time: 0 hr 3 min 15 sec) 
Heartbeat CPU 0 instructions: 50000002 cycles: 99388293 heartbeat IPC: 0.41158 cumulative IPC: 0.413576 (Simulation time: 0 hr 4 min 6 sec) 
Heartbeat CPU 0 instructions: 60000000 cycles: 124001792 heartbeat IPC: 0.406281 cumulative IPC: 0.412096 (Simulation time: 0 hr 4 min 57 sec) 
Heartbeat CPU 0 instructions: 70000000 cycles: 147054958 heartbeat IPC: 0.43378 cumulative IPC: 0.415558 (Simulation time: 0 hr 5 min 48 sec) 
Heartbeat CPU 0 instructions: 80000000 cycles: 170965747 heartbeat IPC: 0.418221 cumulative IPC: 0.415936 (Simulation time: 0 hr 6 min 39 sec) 
Heartbeat CPU 0 instructions: 90000004 cycles: 195693911 heartbeat IPC: 0.404397 cumulative IPC: 0.414458 (Simulation time: 0 hr 7 min 32 sec) 
Heartbeat CPU 0 instructions: 100000002 cycles: 219178295 heartbeat IPC: 0.425815 cumulative IPC: 0.41569 (Simulation time: 0 hr 8 min 22 sec) 
Heartbeat CPU 0 instructions: 110000003 cycles: 243219904 heartbeat IPC: 0.415946 cumulative IPC: 0.415715 (Simulation time: 0 hr 9 min 14 sec) 
Finished CPU 0 instructions: 100000001 cycles: 240549136 cumulative IPC: 0.415715 (Simulation time: 0 hr 9 min 14 sec) 

ChampSim completed all CPUs

Region of Interest Statistics

CPU 0 cumulative IPC: 0.415715 instructions: 100000001 cycles: 240549136
cpu0_DTLB TOTAL     ACCESS:   24054206  HIT:   21626360  MISS:    2427846
cpu0_DTLB LOAD      ACCESS:   21285529  HIT:   19103595  MISS:    2181934
cpu0_DTLB RFO       ACCESS:    2768677  HIT:    2522765  MISS:     245912
cpu0_DTLB PREFETCH  ACCESS:          0  HIT:          0  MISS:          0
cpu0_DTLB WRITEBACK ACCESS:          0  HIT:          0  MISS:          0
cpu0_DTLB TRANSLATION ACCESS:          0  HIT:          0  MISS:          0
cpu0_DTLB PREFETCH  REQUESTED:          0  ISSUED:          0  USEFUL:          0  USELESS:          0
cpu0_DTLB AVERAGE MISS LATENCY: 10.5705 cycles
cpu0_ITLB TOTAL     ACCESS:   12810417  HIT:   12810407  MISS:         10
cpu0_ITLB LOAD      ACCESS:   12810417  HIT:   12810407  MISS:         10
cpu0_ITLB RFO       ACCESS:          0  HIT:          0  MISS:          0
cpu0_ITLB PREFETCH  ACCESS:          0  HIT:          0  MISS:          0
cpu0_ITLB WRITEBACK ACCESS:          0  HIT:          0  MISS:          0
cpu0_ITLB TRANSLATION ACCESS:          0  HIT:          0  MISS:          0
cpu0_ITLB PREFETCH  REQUESTED:          0  ISSUED:          0  USEFUL:          0  USELESS:          0
cpu0_ITLB AVERAGE MISS LATENCY: 239.6 cycles
cpu0_L1I TOTAL     ACCESS:       4975  HIT:       4874  MISS:        101
cpu0_L1I LOAD      ACCESS:       4975  HIT:       4874  MISS:        101
cpu0_L1I RFO       ACCESS:          0  HIT:          0  MISS:          0
cpu0_L1I PREFETCH  ACCESS:          0  HIT:          0  MISS:          0
cpu0_L1I WRITEBACK ACCESS:          0  HIT:          0  MISS:          0
cpu0_L1I TRANSLATION ACCESS:          0  HIT:          0  MISS:          0
cpu0_L1I PREFETCH  REQUESTED:          0  ISSUED:          0  USEFUL:          0  USELESS:          0
cpu0_L1I AVERAGE MISS LATENCY: 187.871 cycles
cpu0_STLB TOTAL     ACCESS:    2427856  HIT:    2026646  MISS:     401210
cpu0_STLB LOAD      ACCESS:    2181944  HIT:    1847056  MISS:     334888
cpu0_STLB RFO       ACCESS:     245912  HIT:     179590  MISS:      66322
cpu0_STLB PREFETCH  ACCESS:          0  HIT:          0  MISS:          0
cpu0_STLB WRITEBACK ACCESS:          0  HIT:          0  MISS:          0
cpu0_STLB TRANSLATION ACCESS:          0  HIT:          0  MISS:          0
cpu0_STLB PREFETCH  REQUESTED:          0  ISSUED:          0  USEFUL:          0  USELESS:          0
cpu0_STLB AVERAGE MISS LATENCY: 9.44353 cycles
cpu0_L1D TOTAL     ACCESS:   26431690  HIT:   23507198  MISS:    2924492
cpu0_L1D LOAD      ACCESS:   21757760  HIT:   18872334  MISS:    2885426
cpu0_L1D RFO       ACCESS:    4287402  HIT:    4250319  MISS:      37083
cpu0_L1D PREFETCH  ACCESS:          0  HIT:          0  MISS:          0
cpu0_L1D WRITEBACK ACCESS:          0  HIT:          0  MISS:          0
cpu0_L1D TRANSLATION ACCESS:     386528  HIT:     384545  MISS:       1983
cpu0_L1D PREFETCH  REQUESTED:          0  ISSUED:          0  USEFUL:          0  USELESS:          0
cpu0_L1D AVERAGE MISS LATENCY: 33.8028 cycles
cpu0_L2C TOTAL     ACCESS:    3881066  HIT:    2756700  MISS:    1124366
cpu0_L2C LOAD      ACCESS:    2885456  HIT:    1767329  MISS:    1118127
cpu0_L2C RFO       ACCESS:      37083  HIT:      31088  MISS:       5995
cpu0_L2C PREFETCH  ACCESS:          0  HIT:          0  MISS:          0
cpu0_L2C WRITEBACK ACCESS:     956544  HIT:     956488  MISS:         56
cpu0_L2C TRANSLATION ACCESS:       1983  HIT:       1795  MISS:        188
cpu0_L2C PREFETCH  REQUESTED:          0  ISSUED:          0  USEFUL:          0  USELESS:          0
cpu0_L2C AVERAGE MISS LATENCY: 59.2733 cycles
LLC TOTAL     ACCESS:    1532663  HIT:    1243191  MISS:     289472
LLC LOAD      ACCESS:    1117972  HIT:     869719  MISS:     248253
LLC RFO       ACCESS:       5995  HIT:       5662  MISS:        333
LLC PREFETCH  ACCESS:          0  HIT:          0  MISS:          0
LLC WRITEBACK ACCESS:     408508  HIT:     367634  MISS:      40874
LLC TRANSLATION ACCESS:        188  HIT:        176  MISS:         12
LLC PREFETCH  REQUESTED:          0  ISSUED:          0  USEFUL:          0  USELESS:          0
LLC AVERAGE MISS LATENCY: 148.676 cycles
Insertion Distribution: 
	LOAD 76100 0 0 132586 65766 
	RFO 0 0 0 330 56 
	PREF 0 0 0 0 0 
	WRITEBACK 0 0 0 0 41544 
	 1 0 0 21 1 
Total Prefetch Downgrades: 0

DRAM Statistics
 CHANNEL 0
 RQ ROW_BUFFER_HIT:        733  ROW_BUFFER_MISS:     247617
 DBUS AVG_CONGESTED_CYCLE:    3.55691
 WQ ROW_BUFFER_HIT:       6806  ROW_BUFFER_MISS:     130506  FULL:          0


CPU 0 Branch Prediction Accuracy: 69.3175% MPKI: 58.5794 Average ROB Occupancy at Mispredict: 5.13475
Branch type MPKI
BRANCH_DIRECT_JUMP: 0.00025
BRANCH_INDIRECT: 0
BRANCH_CONDITIONAL: 58.5789
BRANCH_DIRECT_CALL: 0.00016
BRANCH_INDIRECT_CALL: 0
BRANCH_RETURN: 0.00016

