
*** ChampSim Multicore Out-of-Order Simulator ***

Warmup Instructions: 10000000
Simulation Instructions: 100000000
Number of CPUs: 1
Off-chip DRAM Size: 4 GiB Channels: 1 Width: 64-bit Data Rate: 3200 MT/s

VirtualMemory physical capacity: 8588881920 num_ppages: 2096895
VirtualMemory page size: 4096 log2_page_size: 12

CPU 0 runs /datasets/cs240c-wi22-a00-public/data/Assignment2/bzip2_183B.trace.xz
CPU 0 Bimodal branch predictor
Basic BTB sets: 1024 ways: 8 indirect buffer size: 4096 RAS size: 64
Initialize SRRIP state
Heartbeat CPU 0 instructions: 10000000 cycles: 3166435 heartbeat IPC: 3.15813 cumulative IPC: 3.15813 (Simulation time: 0 hr 0 min 44 sec) 

Warmup complete CPU 0 instructions: 10000005 cycles: 3166437 (Simulation time: 0 hr 0 min 44 sec) 

Heartbeat CPU 0 instructions: 20000000 cycles: 10308452 heartbeat IPC: 1.40016 cumulative IPC: 1.40016 (Simulation time: 0 hr 1 min 27 sec) 
Heartbeat CPU 0 instructions: 30000001 cycles: 17842034 heartbeat IPC: 1.32739 cumulative IPC: 1.36281 (Simulation time: 0 hr 2 min 7 sec) 
Heartbeat CPU 0 instructions: 40000002 cycles: 25234457 heartbeat IPC: 1.35274 cumulative IPC: 1.35943 (Simulation time: 0 hr 2 min 46 sec) 
Heartbeat CPU 0 instructions: 50000001 cycles: 33052642 heartbeat IPC: 1.27907 cumulative IPC: 1.33841 (Simulation time: 0 hr 3 min 25 sec) 
Heartbeat CPU 0 instructions: 60000004 cycles: 40677172 heartbeat IPC: 1.31156 cumulative IPC: 1.33295 (Simulation time: 0 hr 4 min 3 sec) 
Heartbeat CPU 0 instructions: 70000002 cycles: 49361282 heartbeat IPC: 1.15153 cumulative IPC: 1.29885 (Simulation time: 0 hr 4 min 43 sec) 
Heartbeat CPU 0 instructions: 80000000 cycles: 57379042 heartbeat IPC: 1.24723 cumulative IPC: 1.29121 (Simulation time: 0 hr 5 min 21 sec) 
Heartbeat CPU 0 instructions: 90000002 cycles: 65775022 heartbeat IPC: 1.19105 cumulative IPC: 1.27778 (Simulation time: 0 hr 6 min 0 sec) 
Heartbeat CPU 0 instructions: 100000002 cycles: 75080871 heartbeat IPC: 1.07459 cumulative IPC: 1.25149 (Simulation time: 0 hr 6 min 39 sec) 
Heartbeat CPU 0 instructions: 110000003 cycles: 84314856 heartbeat IPC: 1.08296 cumulative IPC: 1.23231 (Simulation time: 0 hr 7 min 20 sec) 
Finished CPU 0 instructions: 100000003 cycles: 81148420 cumulative IPC: 1.23231 (Simulation time: 0 hr 7 min 20 sec) 

ChampSim completed all CPUs

Region of Interest Statistics

CPU 0 cumulative IPC: 1.23231 instructions: 100000003 cycles: 81148420
cpu0_DTLB TOTAL     ACCESS:   21898910  HIT:   21442712  MISS:     456198
cpu0_DTLB LOAD      ACCESS:   17507790  HIT:   17192866  MISS:     314924
cpu0_DTLB RFO       ACCESS:    4391120  HIT:    4249846  MISS:     141274
cpu0_DTLB PREFETCH  ACCESS:          0  HIT:          0  MISS:          0
cpu0_DTLB WRITEBACK ACCESS:          0  HIT:          0  MISS:          0
cpu0_DTLB TRANSLATION ACCESS:          0  HIT:          0  MISS:          0
cpu0_DTLB PREFETCH  REQUESTED:          0  ISSUED:          0  USEFUL:          0  USELESS:          0
cpu0_DTLB AVERAGE MISS LATENCY: 9.2504 cycles
cpu0_ITLB TOTAL     ACCESS:   10075246  HIT:   10075246  MISS:          0
cpu0_ITLB LOAD      ACCESS:   10075246  HIT:   10075246  MISS:          0
cpu0_ITLB RFO       ACCESS:          0  HIT:          0  MISS:          0
cpu0_ITLB PREFETCH  ACCESS:          0  HIT:          0  MISS:          0
cpu0_ITLB WRITEBACK ACCESS:          0  HIT:          0  MISS:          0
cpu0_ITLB TRANSLATION ACCESS:          0  HIT:          0  MISS:          0
cpu0_ITLB PREFETCH  REQUESTED:          0  ISSUED:          0  USEFUL:          0  USELESS:          0
cpu0_ITLB AVERAGE MISS LATENCY: -nan cycles
cpu0_L1I TOTAL     ACCESS:      41422  HIT:      41421  MISS:          1
cpu0_L1I LOAD      ACCESS:      41422  HIT:      41421  MISS:          1
cpu0_L1I RFO       ACCESS:          0  HIT:          0  MISS:          0
cpu0_L1I PREFETCH  ACCESS:          0  HIT:          0  MISS:          0
cpu0_L1I WRITEBACK ACCESS:          0  HIT:          0  MISS:          0
cpu0_L1I TRANSLATION ACCESS:          0  HIT:          0  MISS:          0
cpu0_L1I PREFETCH  REQUESTED:          0  ISSUED:          0  USEFUL:          0  USELESS:          0
cpu0_L1I AVERAGE MISS LATENCY: 194 cycles
cpu0_STLB TOTAL     ACCESS:     456198  HIT:     455805  MISS:        393
cpu0_STLB LOAD      ACCESS:     314924  HIT:     314783  MISS:        141
cpu0_STLB RFO       ACCESS:     141274  HIT:     141022  MISS:        252
cpu0_STLB PREFETCH  ACCESS:          0  HIT:          0  MISS:          0
cpu0_STLB WRITEBACK ACCESS:          0  HIT:          0  MISS:          0
cpu0_STLB TRANSLATION ACCESS:          0  HIT:          0  MISS:          0
cpu0_STLB PREFETCH  REQUESTED:          0  ISSUED:          0  USEFUL:          0  USELESS:          0
cpu0_STLB AVERAGE MISS LATENCY: 206.232 cycles
cpu0_L1D TOTAL     ACCESS:   20754161  HIT:   19345065  MISS:    1409096
cpu0_L1D LOAD      ACCESS:   14095717  HIT:   13040376  MISS:    1055341
cpu0_L1D RFO       ACCESS:    6658072  HIT:    6304512  MISS:     353560
cpu0_L1D PREFETCH  ACCESS:          0  HIT:          0  MISS:          0
cpu0_L1D WRITEBACK ACCESS:          0  HIT:          0  MISS:          0
cpu0_L1D TRANSLATION ACCESS:        372  HIT:        177  MISS:        195
cpu0_L1D PREFETCH  REQUESTED:          0  ISSUED:          0  USEFUL:          0  USELESS:          0
cpu0_L1D AVERAGE MISS LATENCY: 79.3445 cycles
cpu0_L2C TOTAL     ACCESS:    1811340  HIT:    1198085  MISS:     613255
cpu0_L2C LOAD      ACCESS:    1055324  HIT:     692817  MISS:     362507
cpu0_L2C RFO       ACCESS:     353513  HIT:     102869  MISS:     250644
cpu0_L2C PREFETCH  ACCESS:          0  HIT:          0  MISS:          0
cpu0_L2C WRITEBACK ACCESS:     402308  HIT:     402235  MISS:         73
cpu0_L2C TRANSLATION ACCESS:        195  HIT:        164  MISS:         31
cpu0_L2C PREFETCH  REQUESTED:          0  ISSUED:          0  USEFUL:          0  USELESS:          0
cpu0_L2C AVERAGE MISS LATENCY: 156.9 cycles
LLC TOTAL     ACCESS:     901967  HIT:     754423  MISS:     147544
LLC LOAD      ACCESS:     362506  HIT:     293871  MISS:      68635
LLC RFO       ACCESS:     250619  HIT:     184943  MISS:      65676
LLC PREFETCH  ACCESS:          0  HIT:          0  MISS:          0
LLC WRITEBACK ACCESS:     288811  HIT:     275582  MISS:      13229
LLC TRANSLATION ACCESS:         31  HIT:         27  MISS:          4
LLC PREFETCH  REQUESTED:          0  ISSUED:          0  USEFUL:          0  USELESS:          0
LLC AVERAGE MISS LATENCY: 564.852 cycles
Insertion Distribution: 
	LOAD 45050 0 0 33047 8405 
	RFO 39879 0 0 27982 10815 
	PREF 0 0 0 0 0 
	WRITEBACK 0 0 0 0 13301 
	 0 0 0 12 3 
Total Prefetch Downgrades: 0

DRAM Statistics
 CHANNEL 0
 RQ ROW_BUFFER_HIT:       8772  ROW_BUFFER_MISS:     124843
 DBUS AVG_CONGESTED_CYCLE:    3.97262
 WQ ROW_BUFFER_HIT:       7088  ROW_BUFFER_MISS:      83236  FULL:          0


CPU 0 Branch Prediction Accuracy: 89.4501% MPKI: 18.6246 Average ROB Occupancy at Mispredict: 32.5687
Branch type MPKI
BRANCH_DIRECT_JUMP: 3e-05
BRANCH_INDIRECT: 0
BRANCH_CONDITIONAL: 18.6246
BRANCH_DIRECT_CALL: 0
BRANCH_INDIRECT_CALL: 0
BRANCH_RETURN: 0

