
*** ChampSim Multicore Out-of-Order Simulator ***

Warmup Instructions: 10000000
Simulation Instructions: 100000000
Number of CPUs: 1
Off-chip DRAM Size: 4 GiB Channels: 1 Width: 64-bit Data Rate: 3200 MT/s

VirtualMemory physical capacity: 8588881920 num_ppages: 2096895
VirtualMemory page size: 4096 log2_page_size: 12

CPU 0 runs /datasets/cs240c-wi22-a00-public/data/Assignment2/cactusADM_1039B.trace.xz
CPU 0 Bimodal branch predictor
Basic BTB sets: 1024 ways: 8 indirect buffer size: 4096 RAS size: 64
Initialize SRRIP state
Heartbeat CPU 0 instructions: 10000004 cycles: 3647107 heartbeat IPC: 2.7419 cumulative IPC: 2.7419 (Simulation time: 0 hr 0 min 57 sec) 

Warmup complete CPU 0 instructions: 10000004 cycles: 3647107 (Simulation time: 0 hr 0 min 57 sec) 

Heartbeat CPU 0 instructions: 20000004 cycles: 13502540 heartbeat IPC: 1.01467 cumulative IPC: 1.01467 (Simulation time: 0 hr 2 min 45 sec) 
Heartbeat CPU 0 instructions: 30000000 cycles: 22616748 heartbeat IPC: 1.09719 cumulative IPC: 1.05432 (Simulation time: 0 hr 4 min 28 sec) 
Heartbeat CPU 0 instructions: 40000000 cycles: 32053830 heartbeat IPC: 1.05965 cumulative IPC: 1.05609 (Simulation time: 0 hr 6 min 16 sec) 
Heartbeat CPU 0 instructions: 50000004 cycles: 40791701 heartbeat IPC: 1.14444 cumulative IPC: 1.07687 (Simulation time: 0 hr 7 min 59 sec) 
Heartbeat CPU 0 instructions: 60000004 cycles: 46955169 heartbeat IPC: 1.62246 cumulative IPC: 1.15452 (Simulation time: 0 hr 9 min 26 sec) 
Heartbeat CPU 0 instructions: 70000003 cycles: 55455849 heartbeat IPC: 1.17638 cumulative IPC: 1.15811 (Simulation time: 0 hr 11 min 6 sec) 
Heartbeat CPU 0 instructions: 80000004 cycles: 63964022 heartbeat IPC: 1.17534 cumulative IPC: 1.16054 (Simulation time: 0 hr 12 min 48 sec) 
Heartbeat CPU 0 instructions: 90000004 cycles: 72427795 heartbeat IPC: 1.18151 cumulative IPC: 1.16312 (Simulation time: 0 hr 14 min 28 sec) 
Heartbeat CPU 0 instructions: 100000000 cycles: 78409329 heartbeat IPC: 1.67181 cumulative IPC: 1.20382 (Simulation time: 0 hr 15 min 53 sec) 
Heartbeat CPU 0 instructions: 110000003 cycles: 86766555 heartbeat IPC: 1.19657 cumulative IPC: 1.20309 (Simulation time: 0 hr 17 min 34 sec) 
Finished CPU 0 instructions: 100000004 cycles: 83119449 cumulative IPC: 1.20309 (Simulation time: 0 hr 17 min 34 sec) 

ChampSim completed all CPUs

Region of Interest Statistics

CPU 0 cumulative IPC: 1.20309 instructions: 100000004 cycles: 83119449
cpu0_DTLB TOTAL     ACCESS:   22827800  HIT:   20778854  MISS:    2048946
cpu0_DTLB LOAD      ACCESS:   18917989  HIT:   17485584  MISS:    1432405
cpu0_DTLB RFO       ACCESS:    3909811  HIT:    3293270  MISS:     616541
cpu0_DTLB PREFETCH  ACCESS:          0  HIT:          0  MISS:          0
cpu0_DTLB WRITEBACK ACCESS:          0  HIT:          0  MISS:          0
cpu0_DTLB TRANSLATION ACCESS:          0  HIT:          0  MISS:          0
cpu0_DTLB PREFETCH  REQUESTED:          0  ISSUED:          0  USEFUL:          0  USELESS:          0
cpu0_DTLB AVERAGE MISS LATENCY: 16.4206 cycles
cpu0_ITLB TOTAL     ACCESS:    1451319  HIT:    1451319  MISS:          0
cpu0_ITLB LOAD      ACCESS:    1451319  HIT:    1451319  MISS:          0
cpu0_ITLB RFO       ACCESS:          0  HIT:          0  MISS:          0
cpu0_ITLB PREFETCH  ACCESS:          0  HIT:          0  MISS:          0
cpu0_ITLB WRITEBACK ACCESS:          0  HIT:          0  MISS:          0
cpu0_ITLB TRANSLATION ACCESS:          0  HIT:          0  MISS:          0
cpu0_ITLB PREFETCH  REQUESTED:          0  ISSUED:          0  USEFUL:          0  USELESS:          0
cpu0_ITLB AVERAGE MISS LATENCY: -nan cycles
cpu0_L1I TOTAL     ACCESS:    8114206  HIT:    8114203  MISS:          3
cpu0_L1I LOAD      ACCESS:    8114206  HIT:    8114203  MISS:          3
cpu0_L1I RFO       ACCESS:          0  HIT:          0  MISS:          0
cpu0_L1I PREFETCH  ACCESS:          0  HIT:          0  MISS:          0
cpu0_L1I WRITEBACK ACCESS:          0  HIT:          0  MISS:          0
cpu0_L1I TRANSLATION ACCESS:          0  HIT:          0  MISS:          0
cpu0_L1I PREFETCH  REQUESTED:          0  ISSUED:          0  USEFUL:          0  USELESS:          0
cpu0_L1I AVERAGE MISS LATENCY: 588.333 cycles
cpu0_STLB TOTAL     ACCESS:    2048946  HIT:    1130496  MISS:     918450
cpu0_STLB LOAD      ACCESS:    1432405  HIT:     835683  MISS:     596722
cpu0_STLB RFO       ACCESS:     616541  HIT:     294813  MISS:     321728
cpu0_STLB PREFETCH  ACCESS:          0  HIT:          0  MISS:          0
cpu0_STLB WRITEBACK ACCESS:          0  HIT:          0  MISS:          0
cpu0_STLB TRANSLATION ACCESS:          0  HIT:          0  MISS:          0
cpu0_STLB PREFETCH  REQUESTED:          0  ISSUED:          0  USEFUL:          0  USELESS:          0
cpu0_STLB AVERAGE MISS LATENCY: 16.3942 cycles
cpu0_L1D TOTAL     ACCESS:   37582845  HIT:   36259138  MISS:    1323707
cpu0_L1D LOAD      ACCESS:   25700239  HIT:   24647838  MISS:    1052401
cpu0_L1D RFO       ACCESS:   10964999  HIT:   10699628  MISS:     265371
cpu0_L1D PREFETCH  ACCESS:          0  HIT:          0  MISS:          0
cpu0_L1D WRITEBACK ACCESS:          0  HIT:          0  MISS:          0
cpu0_L1D TRANSLATION ACCESS:     917607  HIT:     911672  MISS:       5935
cpu0_L1D PREFETCH  REQUESTED:          0  ISSUED:          0  USEFUL:          0  USELESS:          0
cpu0_L1D AVERAGE MISS LATENCY: 296.158 cycles
cpu0_L2C TOTAL     ACCESS:    1592980  HIT:     694172  MISS:     898808
cpu0_L2C LOAD      ACCESS:    1052403  HIT:     419480  MISS:     632923
cpu0_L2C RFO       ACCESS:     265371  HIT:          0  MISS:     265371
cpu0_L2C PREFETCH  ACCESS:          0  HIT:          0  MISS:          0
cpu0_L2C WRITEBACK ACCESS:     269271  HIT:     269059  MISS:        212
cpu0_L2C TRANSLATION ACCESS:       5935  HIT:       5633  MISS:        302
cpu0_L2C PREFETCH  REQUESTED:          0  ISSUED:          0  USEFUL:          0  USELESS:          0
cpu0_L2C AVERAGE MISS LATENCY: 419.943 cycles
LLC TOTAL     ACCESS:    1165759  HIT:     342635  MISS:     823124
LLC LOAD      ACCESS:     632923  HIT:     164028  MISS:     468895
LLC RFO       ACCESS:     265371  HIT:      71724  MISS:     193647
LLC PREFETCH  ACCESS:          0  HIT:          0  MISS:          0
LLC WRITEBACK ACCESS:     267163  HIT:     106826  MISS:     160337
LLC TRANSLATION ACCESS:        302  HIT:         57  MISS:        245
LLC PREFETCH  REQUESTED:          0  ISSUED:          0  USEFUL:          0  USELESS:          0
LLC AVERAGE MISS LATENCY: 435.629 cycles
Insertion Distribution: 
	LOAD 51455 0 0 65226 402290 
	RFO 16411 0 0 21299 167218 
	PREF 0 0 0 0 0 
	WRITEBACK 0 0 0 0 163045 
	 1 0 0 59 226 
Total Prefetch Downgrades: 0

DRAM Statistics
 CHANNEL 0
 RQ ROW_BUFFER_HIT:       6572  ROW_BUFFER_MISS:     656211
 DBUS AVG_CONGESTED_CYCLE:    3.97578
 WQ ROW_BUFFER_HIT:      16047  ROW_BUFFER_MISS:     205321  FULL:        424


CPU 0 Branch Prediction Accuracy: 97.7479% MPKI: 0.04701 Average ROB Occupancy at Mispredict: 283.791
Branch type MPKI
BRANCH_DIRECT_JUMP: 0
BRANCH_INDIRECT: 0
BRANCH_CONDITIONAL: 0.04701
BRANCH_DIRECT_CALL: 0
BRANCH_INDIRECT_CALL: 0
BRANCH_RETURN: 0

