
*** ChampSim Multicore Out-of-Order Simulator ***

Warmup Instructions: 10000000
Simulation Instructions: 100000000
Number of CPUs: 1
Off-chip DRAM Size: 4 GiB Channels: 1 Width: 64-bit Data Rate: 3200 MT/s

VirtualMemory physical capacity: 8588881920 num_ppages: 2096895
VirtualMemory page size: 4096 log2_page_size: 12

CPU 0 runs /datasets/cs240c-wi22-a00-public/data/Assignment2/h264ref_273B.trace.xz
CPU 0 Bimodal branch predictor
Basic BTB sets: 1024 ways: 8 indirect buffer size: 4096 RAS size: 64
Initialize SRRIP state
Heartbeat CPU 0 instructions: 10000002 cycles: 3065255 heartbeat IPC: 3.26237 cumulative IPC: 3.26237 (Simulation time: 0 hr 0 min 44 sec) 

Warmup complete CPU 0 instructions: 10000002 cycles: 3065255 (Simulation time: 0 hr 0 min 44 sec) 

Heartbeat CPU 0 instructions: 20000001 cycles: 11140953 heartbeat IPC: 1.23828 cumulative IPC: 1.23828 (Simulation time: 0 hr 1 min 36 sec) 
Heartbeat CPU 0 instructions: 30000000 cycles: 17265503 heartbeat IPC: 1.63277 cumulative IPC: 1.40843 (Simulation time: 0 hr 2 min 49 sec) 
Heartbeat CPU 0 instructions: 40000004 cycles: 23425031 heartbeat IPC: 1.6235 cumulative IPC: 1.47349 (Simulation time: 0 hr 3 min 58 sec) 
Heartbeat CPU 0 instructions: 50000001 cycles: 31133652 heartbeat IPC: 1.29725 cumulative IPC: 1.42509 (Simulation time: 0 hr 4 min 46 sec) 
Heartbeat CPU 0 instructions: 60000002 cycles: 38294263 heartbeat IPC: 1.39653 cumulative IPC: 1.41928 (Simulation time: 0 hr 5 min 44 sec) 
Heartbeat CPU 0 instructions: 70000003 cycles: 44418265 heartbeat IPC: 1.63292 cumulative IPC: 1.45092 (Simulation time: 0 hr 6 min 55 sec) 
Heartbeat CPU 0 instructions: 80000001 cycles: 50286989 heartbeat IPC: 1.70395 cumulative IPC: 1.48237 (Simulation time: 0 hr 7 min 59 sec) 
Heartbeat CPU 0 instructions: 90000002 cycles: 58935473 heartbeat IPC: 1.15627 cumulative IPC: 1.43189 (Simulation time: 0 hr 8 min 46 sec) 
Heartbeat CPU 0 instructions: 100000000 cycles: 65776834 heartbeat IPC: 1.4617 cumulative IPC: 1.43514 (Simulation time: 0 hr 9 min 51 sec) 
Heartbeat CPU 0 instructions: 110000003 cycles: 71895754 heartbeat IPC: 1.63428 cumulative IPC: 1.45284 (Simulation time: 0 hr 11 min 3 sec) 
Finished CPU 0 instructions: 100000001 cycles: 68830499 cumulative IPC: 1.45284 (Simulation time: 0 hr 11 min 3 sec) 

ChampSim completed all CPUs

Region of Interest Statistics

CPU 0 cumulative IPC: 1.45284 instructions: 100000001 cycles: 68830499
cpu0_DTLB TOTAL     ACCESS:   22059327  HIT:   21940122  MISS:     119205
cpu0_DTLB LOAD      ACCESS:   18900249  HIT:   18820689  MISS:      79560
cpu0_DTLB RFO       ACCESS:    3159078  HIT:    3119433  MISS:      39645
cpu0_DTLB PREFETCH  ACCESS:          0  HIT:          0  MISS:          0
cpu0_DTLB WRITEBACK ACCESS:          0  HIT:          0  MISS:          0
cpu0_DTLB TRANSLATION ACCESS:          0  HIT:          0  MISS:          0
cpu0_DTLB PREFETCH  REQUESTED:          0  ISSUED:          0  USEFUL:          0  USELESS:          0
cpu0_DTLB AVERAGE MISS LATENCY: 9.92002 cycles
cpu0_ITLB TOTAL     ACCESS:    5684290  HIT:    5683876  MISS:        414
cpu0_ITLB LOAD      ACCESS:    5684290  HIT:    5683876  MISS:        414
cpu0_ITLB RFO       ACCESS:          0  HIT:          0  MISS:          0
cpu0_ITLB PREFETCH  ACCESS:          0  HIT:          0  MISS:          0
cpu0_ITLB WRITEBACK ACCESS:          0  HIT:          0  MISS:          0
cpu0_ITLB TRANSLATION ACCESS:          0  HIT:          0  MISS:          0
cpu0_ITLB PREFETCH  REQUESTED:          0  ISSUED:          0  USEFUL:          0  USELESS:          0
cpu0_ITLB AVERAGE MISS LATENCY: 28.087 cycles
cpu0_L1I TOTAL     ACCESS:    5532420  HIT:    5512036  MISS:      20384
cpu0_L1I LOAD      ACCESS:    5532420  HIT:    5512036  MISS:      20384
cpu0_L1I RFO       ACCESS:          0  HIT:          0  MISS:          0
cpu0_L1I PREFETCH  ACCESS:          0  HIT:          0  MISS:          0
cpu0_L1I WRITEBACK ACCESS:          0  HIT:          0  MISS:          0
cpu0_L1I TRANSLATION ACCESS:          0  HIT:          0  MISS:          0
cpu0_L1I PREFETCH  REQUESTED:          0  ISSUED:          0  USEFUL:          0  USELESS:          0
cpu0_L1I AVERAGE MISS LATENCY: 46.0091 cycles
cpu0_STLB TOTAL     ACCESS:     119619  HIT:     118618  MISS:       1001
cpu0_STLB LOAD      ACCESS:      79974  HIT:      79171  MISS:        803
cpu0_STLB RFO       ACCESS:      39645  HIT:      39447  MISS:        198
cpu0_STLB PREFETCH  ACCESS:          0  HIT:          0  MISS:          0
cpu0_STLB WRITEBACK ACCESS:          0  HIT:          0  MISS:          0
cpu0_STLB TRANSLATION ACCESS:          0  HIT:          0  MISS:          0
cpu0_STLB PREFETCH  REQUESTED:          0  ISSUED:          0  USEFUL:          0  USELESS:          0
cpu0_STLB AVERAGE MISS LATENCY: 116.624 cycles
cpu0_L1D TOTAL     ACCESS:   23302376  HIT:   22994701  MISS:     307675
cpu0_L1D LOAD      ACCESS:   17544467  HIT:   17326562  MISS:     217905
cpu0_L1D RFO       ACCESS:    5756943  HIT:    5667366  MISS:      89577
cpu0_L1D PREFETCH  ACCESS:          0  HIT:          0  MISS:          0
cpu0_L1D WRITEBACK ACCESS:          0  HIT:          0  MISS:          0
cpu0_L1D TRANSLATION ACCESS:        966  HIT:        773  MISS:        193
cpu0_L1D PREFETCH  REQUESTED:          0  ISSUED:          0  USEFUL:          0  USELESS:          0
cpu0_L1D AVERAGE MISS LATENCY: 59.2566 cycles
cpu0_L2C TOTAL     ACCESS:     418627  HIT:     233705  MISS:     184922
cpu0_L2C LOAD      ACCESS:     238289  HIT:     137199  MISS:     101090
cpu0_L2C RFO       ACCESS:      89575  HIT:       5927  MISS:      83648
cpu0_L2C PREFETCH  ACCESS:          0  HIT:          0  MISS:          0
cpu0_L2C WRITEBACK ACCESS:      90570  HIT:      90400  MISS:        170
cpu0_L2C TRANSLATION ACCESS:        193  HIT:        179  MISS:         14
cpu0_L2C PREFETCH  REQUESTED:          0  ISSUED:          0  USEFUL:          0  USELESS:          0
cpu0_L2C AVERAGE MISS LATENCY: 84.0709 cycles
LLC TOTAL     ACCESS:     262944  HIT:     192696  MISS:      70248
LLC LOAD      ACCESS:     101090  HIT:      59396  MISS:      41694
LLC RFO       ACCESS:      83648  HIT:      60425  MISS:      23223
LLC PREFETCH  ACCESS:          0  HIT:          0  MISS:          0
LLC WRITEBACK ACCESS:      78192  HIT:      72861  MISS:       5331
LLC TRANSLATION ACCESS:         14  HIT:         14  MISS:          0
LLC PREFETCH  REQUESTED:          0  ISSUED:          0  USEFUL:          0  USELESS:          0
LLC AVERAGE MISS LATENCY: 166.075 cycles
Insertion Distribution: 
	LOAD 9061 0 0 31955 17629 
	RFO 5389 0 0 15965 5474 
	PREF 0 0 0 0 0 
	WRITEBACK 0 0 0 0 5331 
	 0 0 0 10 0 
Total Prefetch Downgrades: 0

DRAM Statistics
 CHANNEL 0
 RQ ROW_BUFFER_HIT:      21771  ROW_BUFFER_MISS:      43116
 DBUS AVG_CONGESTED_CYCLE:    3.88135
 WQ ROW_BUFFER_HIT:       3054  ROW_BUFFER_MISS:      19431  FULL:          0


CPU 0 Branch Prediction Accuracy: 92.2303% MPKI: 6.07601 Average ROB Occupancy at Mispredict: 120.049
Branch type MPKI
BRANCH_DIRECT_JUMP: 0.00172
BRANCH_INDIRECT: 0.0023
BRANCH_CONDITIONAL: 6.06757
BRANCH_DIRECT_CALL: 0.00114
BRANCH_INDIRECT_CALL: 0.00124
BRANCH_RETURN: 0.00204

