
*** ChampSim Multicore Out-of-Order Simulator ***

Warmup Instructions: 10000000
Simulation Instructions: 100000000
Number of CPUs: 1
Off-chip DRAM Size: 4 GiB Channels: 1 Width: 64-bit Data Rate: 3200 MT/s

VirtualMemory physical capacity: 8588881920 num_ppages: 2096895
VirtualMemory page size: 4096 log2_page_size: 12

CPU 0 runs /datasets/cs240c-wi22-a00-public/data/Assignment2/hmmer_7B.trace.xz
CPU 0 Bimodal branch predictor
Basic BTB sets: 1024 ways: 8 indirect buffer size: 4096 RAS size: 64
Initialize SRRIP state
Heartbeat CPU 0 instructions: 10000004 cycles: 3986065 heartbeat IPC: 2.50874 cumulative IPC: 2.50874 (Simulation time: 0 hr 0 min 59 sec) 

Warmup complete CPU 0 instructions: 10000004 cycles: 3986065 (Simulation time: 0 hr 0 min 59 sec) 

Heartbeat CPU 0 instructions: 20000004 cycles: 9224794 heartbeat IPC: 1.90886 cumulative IPC: 1.90886 (Simulation time: 0 hr 2 min 25 sec) 
Heartbeat CPU 0 instructions: 30000001 cycles: 13952415 heartbeat IPC: 2.11523 cumulative IPC: 2.00675 (Simulation time: 0 hr 3 min 46 sec) 
Heartbeat CPU 0 instructions: 40000001 cycles: 18474058 heartbeat IPC: 2.21159 cumulative IPC: 2.07068 (Simulation time: 0 hr 5 min 7 sec) 
Heartbeat CPU 0 instructions: 50000000 cycles: 23646613 heartbeat IPC: 1.93328 cumulative IPC: 2.03453 (Simulation time: 0 hr 6 min 30 sec) 
Heartbeat CPU 0 instructions: 60000000 cycles: 27972436 heartbeat IPC: 2.3117 cumulative IPC: 2.08452 (Simulation time: 0 hr 7 min 49 sec) 
Heartbeat CPU 0 instructions: 70000003 cycles: 32294595 heartbeat IPC: 2.31366 cumulative IPC: 2.1195 (Simulation time: 0 hr 9 min 7 sec) 
Heartbeat CPU 0 instructions: 80000001 cycles: 36604312 heartbeat IPC: 2.32034 cumulative IPC: 2.14604 (Simulation time: 0 hr 10 min 26 sec) 
Heartbeat CPU 0 instructions: 90000004 cycles: 40923757 heartbeat IPC: 2.31511 cumulative IPC: 2.16581 (Simulation time: 0 hr 11 min 46 sec) 
Heartbeat CPU 0 instructions: 100000002 cycles: 45242821 heartbeat IPC: 2.31532 cumulative IPC: 2.18146 (Simulation time: 0 hr 13 min 5 sec) 
Heartbeat CPU 0 instructions: 110000001 cycles: 49569860 heartbeat IPC: 2.31105 cumulative IPC: 2.19376 (Simulation time: 0 hr 14 min 23 sec) 
Finished CPU 0 instructions: 100000002 cycles: 45583796 cumulative IPC: 2.19376 (Simulation time: 0 hr 14 min 23 sec) 

ChampSim completed all CPUs

Region of Interest Statistics

CPU 0 cumulative IPC: 2.19376 instructions: 100000002 cycles: 45583796
cpu0_DTLB TOTAL     ACCESS:   40543939  HIT:   40529785  MISS:      14154
cpu0_DTLB LOAD      ACCESS:   32389108  HIT:   32381393  MISS:       7715
cpu0_DTLB RFO       ACCESS:    8154831  HIT:    8148392  MISS:       6439
cpu0_DTLB PREFETCH  ACCESS:          0  HIT:          0  MISS:          0
cpu0_DTLB WRITEBACK ACCESS:          0  HIT:          0  MISS:          0
cpu0_DTLB TRANSLATION ACCESS:          0  HIT:          0  MISS:          0
cpu0_DTLB PREFETCH  REQUESTED:          0  ISSUED:          0  USEFUL:          0  USELESS:          0
cpu0_DTLB AVERAGE MISS LATENCY: 14.2805 cycles
cpu0_ITLB TOTAL     ACCESS:     799127  HIT:     799055  MISS:         72
cpu0_ITLB LOAD      ACCESS:     799127  HIT:     799055  MISS:         72
cpu0_ITLB RFO       ACCESS:          0  HIT:          0  MISS:          0
cpu0_ITLB PREFETCH  ACCESS:          0  HIT:          0  MISS:          0
cpu0_ITLB WRITEBACK ACCESS:          0  HIT:          0  MISS:          0
cpu0_ITLB TRANSLATION ACCESS:          0  HIT:          0  MISS:          0
cpu0_ITLB PREFETCH  REQUESTED:          0  ISSUED:          0  USEFUL:          0  USELESS:          0
cpu0_ITLB AVERAGE MISS LATENCY: 21 cycles
cpu0_L1I TOTAL     ACCESS:      62168  HIT:      62063  MISS:        105
cpu0_L1I LOAD      ACCESS:      62168  HIT:      62063  MISS:        105
cpu0_L1I RFO       ACCESS:          0  HIT:          0  MISS:          0
cpu0_L1I PREFETCH  ACCESS:          0  HIT:          0  MISS:          0
cpu0_L1I WRITEBACK ACCESS:          0  HIT:          0  MISS:          0
cpu0_L1I TRANSLATION ACCESS:          0  HIT:          0  MISS:          0
cpu0_L1I PREFETCH  REQUESTED:          0  ISSUED:          0  USEFUL:          0  USELESS:          0
cpu0_L1I AVERAGE MISS LATENCY: 104.267 cycles
cpu0_STLB TOTAL     ACCESS:      14226  HIT:      13771  MISS:        455
cpu0_STLB LOAD      ACCESS:       7787  HIT:       7779  MISS:          8
cpu0_STLB RFO       ACCESS:       6439  HIT:       5992  MISS:        447
cpu0_STLB PREFETCH  ACCESS:          0  HIT:          0  MISS:          0
cpu0_STLB WRITEBACK ACCESS:          0  HIT:          0  MISS:          0
cpu0_STLB TRANSLATION ACCESS:          0  HIT:          0  MISS:          0
cpu0_STLB PREFETCH  REQUESTED:          0  ISSUED:          0  USEFUL:          0  USELESS:          0
cpu0_STLB AVERAGE MISS LATENCY: 165.958 cycles
cpu0_L1D TOTAL     ACCESS:   33516055  HIT:   33045936  MISS:     470119
cpu0_L1D LOAD      ACCESS:   28671881  HIT:   28510493  MISS:     161388
cpu0_L1D RFO       ACCESS:    4843720  HIT:    4535012  MISS:     308708
cpu0_L1D PREFETCH  ACCESS:          0  HIT:          0  MISS:          0
cpu0_L1D WRITEBACK ACCESS:          0  HIT:          0  MISS:          0
cpu0_L1D TRANSLATION ACCESS:        454  HIT:        431  MISS:         23
cpu0_L1D PREFETCH  REQUESTED:          0  ISSUED:          0  USEFUL:          0  USELESS:          0
cpu0_L1D AVERAGE MISS LATENCY: 232.681 cycles
cpu0_L2C TOTAL     ACCESS:     777361  HIT:     472436  MISS:     304925
cpu0_L2C LOAD      ACCESS:     161493  HIT:     149257  MISS:      12236
cpu0_L2C RFO       ACCESS:     308708  HIT:      16074  MISS:     292634
cpu0_L2C PREFETCH  ACCESS:          0  HIT:          0  MISS:          0
cpu0_L2C WRITEBACK ACCESS:     307137  HIT:     307090  MISS:         47
cpu0_L2C TRANSLATION ACCESS:         23  HIT:         15  MISS:          8
cpu0_L2C PREFETCH  REQUESTED:          0  ISSUED:          0  USEFUL:          0  USELESS:          0
cpu0_L2C AVERAGE MISS LATENCY: 341.796 cycles
LLC TOTAL     ACCESS:     596532  HIT:     449988  MISS:     146544
LLC LOAD      ACCESS:      12235  HIT:      10945  MISS:       1290
LLC RFO       ACCESS:     292633  HIT:     212454  MISS:      80179
LLC PREFETCH  ACCESS:          0  HIT:          0  MISS:          0
LLC WRITEBACK ACCESS:     291656  HIT:     226582  MISS:      65074
LLC TRANSLATION ACCESS:          8  HIT:          7  MISS:          1
LLC PREFETCH  REQUESTED:          0  ISSUED:          0  USEFUL:          0  USELESS:          0
LLC AVERAGE MISS LATENCY: 667.351 cycles
Insertion Distribution: 
	LOAD 519 0 0 3279 44 
	RFO 3048 0 0 30288 77562 
	PREF 0 0 0 0 0 
	WRITEBACK 0 0 0 0 65925 
	 0 0 0 13 0 
Total Prefetch Downgrades: 0

DRAM Statistics
 CHANNEL 0
 RQ ROW_BUFFER_HIT:       1529  ROW_BUFFER_MISS:      79939
 DBUS AVG_CONGESTED_CYCLE:    3.99357
 WQ ROW_BUFFER_HIT:       4208  ROW_BUFFER_MISS:      73060  FULL:      19099


CPU 0 Branch Prediction Accuracy: 98.9368% MPKI: 0.40856 Average ROB Occupancy at Mispredict: 252.355
Branch type MPKI
BRANCH_DIRECT_JUMP: 0.00016
BRANCH_INDIRECT: 0.00157
BRANCH_CONDITIONAL: 0.40659
BRANCH_DIRECT_CALL: 9e-05
BRANCH_INDIRECT_CALL: 3e-05
BRANCH_RETURN: 0.00012

