
*** ChampSim Multicore Out-of-Order Simulator ***

Warmup Instructions: 10000000
Simulation Instructions: 100000000
Number of CPUs: 1
Off-chip DRAM Size: 4 GiB Channels: 1 Width: 64-bit Data Rate: 3200 MT/s

VirtualMemory physical capacity: 8588881920 num_ppages: 2096895
VirtualMemory page size: 4096 log2_page_size: 12

CPU 0 runs /datasets/cs240c-wi22-a00-public/data/Assignment2/bzip2_183B.trace.xz
CPU 0 Bimodal branch predictor
Basic BTB sets: 1024 ways: 8 indirect buffer size: 4096 RAS size: 64
Initialize SRRIP state
Heartbeat CPU 0 instructions: 10000000 cycles: 3166434 heartbeat IPC: 3.15813 cumulative IPC: 3.15813 (Simulation time: 0 hr 0 min 42 sec) 

Warmup complete CPU 0 instructions: 10000005 cycles: 3166436 (Simulation time: 0 hr 0 min 42 sec) 

Heartbeat CPU 0 instructions: 20000000 cycles: 10305596 heartbeat IPC: 1.40072 cumulative IPC: 1.40072 (Simulation time: 0 hr 1 min 22 sec) 
Heartbeat CPU 0 instructions: 30000001 cycles: 17843471 heartbeat IPC: 1.32663 cumulative IPC: 1.36267 (Simulation time: 0 hr 2 min 0 sec) 
Heartbeat CPU 0 instructions: 40000002 cycles: 25249514 heartbeat IPC: 1.35025 cumulative IPC: 1.35851 (Simulation time: 0 hr 2 min 39 sec) 
Heartbeat CPU 0 instructions: 50000001 cycles: 33062186 heartbeat IPC: 1.27997 cumulative IPC: 1.33798 (Simulation time: 0 hr 3 min 17 sec) 
Heartbeat CPU 0 instructions: 60000004 cycles: 40690987 heartbeat IPC: 1.31082 cumulative IPC: 1.33246 (Simulation time: 0 hr 3 min 56 sec) 
Heartbeat CPU 0 instructions: 70000002 cycles: 49368514 heartbeat IPC: 1.1524 cumulative IPC: 1.29864 (Simulation time: 0 hr 4 min 35 sec) 
Heartbeat CPU 0 instructions: 80000000 cycles: 57382799 heartbeat IPC: 1.24777 cumulative IPC: 1.29112 (Simulation time: 0 hr 5 min 14 sec) 
Heartbeat CPU 0 instructions: 90000002 cycles: 65784430 heartbeat IPC: 1.19025 cumulative IPC: 1.27759 (Simulation time: 0 hr 5 min 57 sec) 
Heartbeat CPU 0 instructions: 100000002 cycles: 75071161 heartbeat IPC: 1.07681 cumulative IPC: 1.25166 (Simulation time: 0 hr 6 min 35 sec) 
Heartbeat CPU 0 instructions: 110000003 cycles: 84313966 heartbeat IPC: 1.08192 cumulative IPC: 1.23232 (Simulation time: 0 hr 7 min 14 sec) 
Finished CPU 0 instructions: 100000003 cycles: 81147531 cumulative IPC: 1.23232 (Simulation time: 0 hr 7 min 14 sec) 

ChampSim completed all CPUs

Region of Interest Statistics

CPU 0 cumulative IPC: 1.23232 instructions: 100000003 cycles: 81147531
cpu0_DTLB TOTAL     ACCESS:   21898000  HIT:   21441752  MISS:     456248
cpu0_DTLB LOAD      ACCESS:   17506610  HIT:   17191683  MISS:     314927
cpu0_DTLB RFO       ACCESS:    4391390  HIT:    4250069  MISS:     141321
cpu0_DTLB PREFETCH  ACCESS:          0  HIT:          0  MISS:          0
cpu0_DTLB WRITEBACK ACCESS:          0  HIT:          0  MISS:          0
cpu0_DTLB TRANSLATION ACCESS:          0  HIT:          0  MISS:          0
cpu0_DTLB PREFETCH  REQUESTED:          0  ISSUED:          0  USEFUL:          0  USELESS:          0
cpu0_DTLB AVERAGE MISS LATENCY: 9.24695 cycles
cpu0_ITLB TOTAL     ACCESS:   10072010  HIT:   10072010  MISS:          0
cpu0_ITLB LOAD      ACCESS:   10072010  HIT:   10072010  MISS:          0
cpu0_ITLB RFO       ACCESS:          0  HIT:          0  MISS:          0
cpu0_ITLB PREFETCH  ACCESS:          0  HIT:          0  MISS:          0
cpu0_ITLB WRITEBACK ACCESS:          0  HIT:          0  MISS:          0
cpu0_ITLB TRANSLATION ACCESS:          0  HIT:          0  MISS:          0
cpu0_ITLB PREFETCH  REQUESTED:          0  ISSUED:          0  USEFUL:          0  USELESS:          0
cpu0_ITLB AVERAGE MISS LATENCY: -nan cycles
cpu0_L1I TOTAL     ACCESS:      41502  HIT:      41501  MISS:          1
cpu0_L1I LOAD      ACCESS:      41502  HIT:      41501  MISS:          1
cpu0_L1I RFO       ACCESS:          0  HIT:          0  MISS:          0
cpu0_L1I PREFETCH  ACCESS:          0  HIT:          0  MISS:          0
cpu0_L1I WRITEBACK ACCESS:          0  HIT:          0  MISS:          0
cpu0_L1I TRANSLATION ACCESS:          0  HIT:          0  MISS:          0
cpu0_L1I PREFETCH  REQUESTED:          0  ISSUED:          0  USEFUL:          0  USELESS:          0
cpu0_L1I AVERAGE MISS LATENCY: 194 cycles
cpu0_STLB TOTAL     ACCESS:     456248  HIT:     455855  MISS:        393
cpu0_STLB LOAD      ACCESS:     314927  HIT:     314786  MISS:        141
cpu0_STLB RFO       ACCESS:     141321  HIT:     141069  MISS:        252
cpu0_STLB PREFETCH  ACCESS:          0  HIT:          0  MISS:          0
cpu0_STLB WRITEBACK ACCESS:          0  HIT:          0  MISS:          0
cpu0_STLB TRANSLATION ACCESS:          0  HIT:          0  MISS:          0
cpu0_STLB PREFETCH  REQUESTED:          0  ISSUED:          0  USEFUL:          0  USELESS:          0
cpu0_STLB AVERAGE MISS LATENCY: 203.771 cycles
cpu0_L1D TOTAL     ACCESS:   20752649  HIT:   19343173  MISS:    1409476
cpu0_L1D LOAD      ACCESS:   14094912  HIT:   13039565  MISS:    1055347
cpu0_L1D RFO       ACCESS:    6657364  HIT:    6303430  MISS:     353934
cpu0_L1D PREFETCH  ACCESS:          0  HIT:          0  MISS:          0
cpu0_L1D WRITEBACK ACCESS:          0  HIT:          0  MISS:          0
cpu0_L1D TRANSLATION ACCESS:        373  HIT:        178  MISS:        195
cpu0_L1D PREFETCH  REQUESTED:          0  ISSUED:          0  USEFUL:          0  USELESS:          0
cpu0_L1D AVERAGE MISS LATENCY: 80.6709 cycles
cpu0_L2C TOTAL     ACCESS:    1811676  HIT:    1198434  MISS:     613242
cpu0_L2C LOAD      ACCESS:    1055331  HIT:     692817  MISS:     362514
cpu0_L2C RFO       ACCESS:     353897  HIT:     103273  MISS:     250624
cpu0_L2C PREFETCH  ACCESS:          0  HIT:          0  MISS:          0
cpu0_L2C WRITEBACK ACCESS:     402253  HIT:     402180  MISS:         73
cpu0_L2C TRANSLATION ACCESS:        195  HIT:        164  MISS:         31
cpu0_L2C PREFETCH  REQUESTED:          0  ISSUED:          0  USEFUL:          0  USELESS:          0
cpu0_L2C AVERAGE MISS LATENCY: 159.994 cycles
LLC TOTAL     ACCESS:     901935  HIT:     755273  MISS:     146662
LLC LOAD      ACCESS:     362511  HIT:     294379  MISS:      68132
LLC RFO       ACCESS:     250601  HIT:     184147  MISS:      66454
LLC PREFETCH  ACCESS:          0  HIT:          0  MISS:          0
LLC WRITEBACK ACCESS:     288792  HIT:     276717  MISS:      12075
LLC TRANSLATION ACCESS:         31  HIT:         30  MISS:          1
LLC PREFETCH  REQUESTED:          0  ISSUED:          0  USEFUL:          0  USELESS:          0
LLC AVERAGE MISS LATENCY: 581.174 cycles
Insertion Distribution: 
	LOAD 41797 0 36778 7416 
	RFO 34620 0 34143 10728 
	PREF 0 0 0 0 
	WRITEBACK 0 0 0 12140 
	 0 0 11 1 
Total Prefetch Downgrades: 0

DRAM Statistics
 CHANNEL 0
 RQ ROW_BUFFER_HIT:       8775  ROW_BUFFER_MISS:     125129
 DBUS AVG_CONGESTED_CYCLE:    3.97279
 WQ ROW_BUFFER_HIT:       6851  ROW_BUFFER_MISS:      84506  FULL:          0


CPU 0 Branch Prediction Accuracy: 89.4501% MPKI: 18.6246 Average ROB Occupancy at Mispredict: 32.5887
Branch type MPKI
BRANCH_DIRECT_JUMP: 3e-05
BRANCH_INDIRECT: 0
BRANCH_CONDITIONAL: 18.6246
BRANCH_DIRECT_CALL: 0
BRANCH_INDIRECT_CALL: 0
BRANCH_RETURN: 0

