
*** ChampSim Multicore Out-of-Order Simulator ***

Warmup Instructions: 10000000
Simulation Instructions: 100000000
Number of CPUs: 1
Off-chip DRAM Size: 4 GiB Channels: 1 Width: 64-bit Data Rate: 3200 MT/s

VirtualMemory physical capacity: 8588881920 num_ppages: 2096895
VirtualMemory page size: 4096 log2_page_size: 12

CPU 0 runs /datasets/cs240c-wi22-a00-public/data/Assignment2/hmmer_7B.trace.xz
CPU 0 Bimodal branch predictor
Basic BTB sets: 1024 ways: 8 indirect buffer size: 4096 RAS size: 64
Initialize SRRIP state
Heartbeat CPU 0 instructions: 10000004 cycles: 3986065 heartbeat IPC: 2.50874 cumulative IPC: 2.50874 (Simulation time: 0 hr 0 min 57 sec) 

Warmup complete CPU 0 instructions: 10000004 cycles: 3986065 (Simulation time: 0 hr 0 min 57 sec) 

Heartbeat CPU 0 instructions: 20000004 cycles: 9224794 heartbeat IPC: 1.90886 cumulative IPC: 1.90886 (Simulation time: 0 hr 2 min 19 sec) 
Heartbeat CPU 0 instructions: 30000001 cycles: 13956325 heartbeat IPC: 2.11348 cumulative IPC: 2.00597 (Simulation time: 0 hr 3 min 39 sec) 
Heartbeat CPU 0 instructions: 40000001 cycles: 18450578 heartbeat IPC: 2.22506 cumulative IPC: 2.07404 (Simulation time: 0 hr 4 min 59 sec) 
Heartbeat CPU 0 instructions: 50000000 cycles: 23627753 heartbeat IPC: 1.93156 cumulative IPC: 2.03648 (Simulation time: 0 hr 6 min 21 sec) 
Heartbeat CPU 0 instructions: 60000000 cycles: 27954097 heartbeat IPC: 2.31142 cumulative IPC: 2.08611 (Simulation time: 0 hr 7 min 40 sec) 
Heartbeat CPU 0 instructions: 70000003 cycles: 32276576 heartbeat IPC: 2.31349 cumulative IPC: 2.12085 (Simulation time: 0 hr 8 min 58 sec) 
Heartbeat CPU 0 instructions: 80000001 cycles: 36586057 heartbeat IPC: 2.32046 cumulative IPC: 2.14724 (Simulation time: 0 hr 10 min 16 sec) 
Heartbeat CPU 0 instructions: 90000004 cycles: 40905502 heartbeat IPC: 2.31511 cumulative IPC: 2.16688 (Simulation time: 0 hr 11 min 33 sec) 
Heartbeat CPU 0 instructions: 100000002 cycles: 45224566 heartbeat IPC: 2.31532 cumulative IPC: 2.18243 (Simulation time: 0 hr 12 min 47 sec) 
Heartbeat CPU 0 instructions: 110000001 cycles: 49553899 heartbeat IPC: 2.30982 cumulative IPC: 2.19453 (Simulation time: 0 hr 14 min 4 sec) 
Finished CPU 0 instructions: 100000002 cycles: 45567835 cumulative IPC: 2.19453 (Simulation time: 0 hr 14 min 4 sec) 

ChampSim completed all CPUs

Region of Interest Statistics

CPU 0 cumulative IPC: 2.19453 instructions: 100000002 cycles: 45567835
cpu0_DTLB TOTAL     ACCESS:   40544740  HIT:   40530589  MISS:      14151
cpu0_DTLB LOAD      ACCESS:   32389804  HIT:   32382091  MISS:       7713
cpu0_DTLB RFO       ACCESS:    8154936  HIT:    8148498  MISS:       6438
cpu0_DTLB PREFETCH  ACCESS:          0  HIT:          0  MISS:          0
cpu0_DTLB WRITEBACK ACCESS:          0  HIT:          0  MISS:          0
cpu0_DTLB TRANSLATION ACCESS:          0  HIT:          0  MISS:          0
cpu0_DTLB PREFETCH  REQUESTED:          0  ISSUED:          0  USEFUL:          0  USELESS:          0
cpu0_DTLB AVERAGE MISS LATENCY: 14.3191 cycles
cpu0_ITLB TOTAL     ACCESS:     799714  HIT:     799642  MISS:         72
cpu0_ITLB LOAD      ACCESS:     799714  HIT:     799642  MISS:         72
cpu0_ITLB RFO       ACCESS:          0  HIT:          0  MISS:          0
cpu0_ITLB PREFETCH  ACCESS:          0  HIT:          0  MISS:          0
cpu0_ITLB WRITEBACK ACCESS:          0  HIT:          0  MISS:          0
cpu0_ITLB TRANSLATION ACCESS:          0  HIT:          0  MISS:          0
cpu0_ITLB PREFETCH  REQUESTED:          0  ISSUED:          0  USEFUL:          0  USELESS:          0
cpu0_ITLB AVERAGE MISS LATENCY: 21 cycles
cpu0_L1I TOTAL     ACCESS:      62180  HIT:      62075  MISS:        105
cpu0_L1I LOAD      ACCESS:      62180  HIT:      62075  MISS:        105
cpu0_L1I RFO       ACCESS:          0  HIT:          0  MISS:          0
cpu0_L1I PREFETCH  ACCESS:          0  HIT:          0  MISS:          0
cpu0_L1I WRITEBACK ACCESS:          0  HIT:          0  MISS:          0
cpu0_L1I TRANSLATION ACCESS:          0  HIT:          0  MISS:          0
cpu0_L1I PREFETCH  REQUESTED:          0  ISSUED:          0  USEFUL:          0  USELESS:          0
cpu0_L1I AVERAGE MISS LATENCY: 105.829 cycles
cpu0_STLB TOTAL     ACCESS:      14223  HIT:      13768  MISS:        455
cpu0_STLB LOAD      ACCESS:       7785  HIT:       7777  MISS:          8
cpu0_STLB RFO       ACCESS:       6438  HIT:       5991  MISS:        447
cpu0_STLB PREFETCH  ACCESS:          0  HIT:          0  MISS:          0
cpu0_STLB WRITEBACK ACCESS:          0  HIT:          0  MISS:          0
cpu0_STLB TRANSLATION ACCESS:          0  HIT:          0  MISS:          0
cpu0_STLB PREFETCH  REQUESTED:          0  ISSUED:          0  USEFUL:          0  USELESS:          0
cpu0_STLB AVERAGE MISS LATENCY: 167.125 cycles
cpu0_L1D TOTAL     ACCESS:   33517241  HIT:   33047131  MISS:     470110
cpu0_L1D LOAD      ACCESS:   28672031  HIT:   28510652  MISS:     161379
cpu0_L1D RFO       ACCESS:    4844755  HIT:    4536047  MISS:     308708
cpu0_L1D PREFETCH  ACCESS:          0  HIT:          0  MISS:          0
cpu0_L1D WRITEBACK ACCESS:          0  HIT:          0  MISS:          0
cpu0_L1D TRANSLATION ACCESS:        455  HIT:        432  MISS:         23
cpu0_L1D PREFETCH  REQUESTED:          0  ISSUED:          0  USEFUL:          0  USELESS:          0
cpu0_L1D AVERAGE MISS LATENCY: 233.286 cycles
cpu0_L2C TOTAL     ACCESS:     777330  HIT:     472406  MISS:     304924
cpu0_L2C LOAD      ACCESS:     161484  HIT:     149249  MISS:      12235
cpu0_L2C RFO       ACCESS:     308708  HIT:      16074  MISS:     292634
cpu0_L2C PREFETCH  ACCESS:          0  HIT:          0  MISS:          0
cpu0_L2C WRITEBACK ACCESS:     307115  HIT:     307068  MISS:         47
cpu0_L2C TRANSLATION ACCESS:         23  HIT:         15  MISS:          8
cpu0_L2C PREFETCH  REQUESTED:          0  ISSUED:          0  USEFUL:          0  USELESS:          0
cpu0_L2C AVERAGE MISS LATENCY: 342.723 cycles
LLC TOTAL     ACCESS:     596509  HIT:     451932  MISS:     144577
LLC LOAD      ACCESS:      12234  HIT:      10944  MISS:       1290
LLC RFO       ACCESS:     292633  HIT:     213286  MISS:      79347
LLC PREFETCH  ACCESS:          0  HIT:          0  MISS:          0
LLC WRITEBACK ACCESS:     291634  HIT:     227695  MISS:      63939
LLC TRANSLATION ACCESS:          8  HIT:          7  MISS:          1
LLC PREFETCH  REQUESTED:          0  ISSUED:          0  USEFUL:          0  USELESS:          0
LLC AVERAGE MISS LATENCY: 678.391 cycles
Insertion Distribution: 
	LOAD 419 0 3386 37 
	RFO 1964 0 31889 76213 
	PREF 0 0 0 0 
	WRITEBACK 0 0 0 64790 
	 0 0 13 0 
Total Prefetch Downgrades: 0

DRAM Statistics
 CHANNEL 0
 RQ ROW_BUFFER_HIT:       1111  ROW_BUFFER_MISS:      79526
 DBUS AVG_CONGESTED_CYCLE:    3.99426
 WQ ROW_BUFFER_HIT:       3720  ROW_BUFFER_MISS:      72689  FULL:      16629


CPU 0 Branch Prediction Accuracy: 98.9368% MPKI: 0.40856 Average ROB Occupancy at Mispredict: 252.436
Branch type MPKI
BRANCH_DIRECT_JUMP: 0.00016
BRANCH_INDIRECT: 0.00157
BRANCH_CONDITIONAL: 0.40659
BRANCH_DIRECT_CALL: 9e-05
BRANCH_INDIRECT_CALL: 3e-05
BRANCH_RETURN: 0.00012

