
*** ChampSim Multicore Out-of-Order Simulator ***

Warmup Instructions: 10000000
Simulation Instructions: 100000000
Number of CPUs: 1
Off-chip DRAM Size: 4 GiB Channels: 1 Width: 64-bit Data Rate: 3200 MT/s

VirtualMemory physical capacity: 8588881920 num_ppages: 2096895
VirtualMemory page size: 4096 log2_page_size: 12

CPU 0 runs /datasets/cs240c-wi22-a00-public/data/Assignment2/mcf_250B.trace.xz
CPU 0 Bimodal branch predictor
Basic BTB sets: 1024 ways: 8 indirect buffer size: 4096 RAS size: 64
Initialize SRRIP state
Heartbeat CPU 0 instructions: 10000004 cycles: 3834265 heartbeat IPC: 2.60806 cumulative IPC: 2.60806 (Simulation time: 0 hr 0 min 49 sec) 

Warmup complete CPU 0 instructions: 10000004 cycles: 3834265 (Simulation time: 0 hr 0 min 49 sec) 

Heartbeat CPU 0 instructions: 20000000 cycles: 147056172 heartbeat IPC: 0.0698217 cumulative IPC: 0.0698217 (Simulation time: 0 hr 4 min 30 sec) 
Heartbeat CPU 0 instructions: 30000000 cycles: 284622505 heartbeat IPC: 0.0726922 cumulative IPC: 0.071228 (Simulation time: 0 hr 7 min 53 sec) 
Heartbeat CPU 0 instructions: 40000000 cycles: 430008579 heartbeat IPC: 0.0687824 cumulative IPC: 0.0703937 (Simulation time: 0 hr 11 min 32 sec) 
Heartbeat CPU 0 instructions: 50000000 cycles: 570534078 heartbeat IPC: 0.0711615 cumulative IPC: 0.0705841 (Simulation time: 0 hr 15 min 27 sec) 
Heartbeat CPU 0 instructions: 60000000 cycles: 710581415 heartbeat IPC: 0.0714044 cumulative IPC: 0.0707467 (Simulation time: 0 hr 19 min 21 sec) 
Heartbeat CPU 0 instructions: 70000000 cycles: 843596911 heartbeat IPC: 0.0751792 cumulative IPC: 0.0714488 (Simulation time: 0 hr 23 min 6 sec) 
Heartbeat CPU 0 instructions: 80000000 cycles: 986238819 heartbeat IPC: 0.0701056 cumulative IPC: 0.0712537 (Simulation time: 0 hr 26 min 55 sec) 
Heartbeat CPU 0 instructions: 90000000 cycles: 1108153622 heartbeat IPC: 0.0820245 cumulative IPC: 0.0724428 (Simulation time: 0 hr 30 min 16 sec) 
Heartbeat CPU 0 instructions: 100000000 cycles: 1244143458 heartbeat IPC: 0.0735349 cumulative IPC: 0.0725625 (Simulation time: 0 hr 34 min 16 sec) 
Heartbeat CPU 0 instructions: 110000000 cycles: 1386731908 heartbeat IPC: 0.0701319 cumulative IPC: 0.0723119 (Simulation time: 0 hr 38 min 17 sec) 
Finished CPU 0 instructions: 100000000 cycles: 1382897654 cumulative IPC: 0.0723119 (Simulation time: 0 hr 38 min 17 sec) 

ChampSim completed all CPUs

Region of Interest Statistics

CPU 0 cumulative IPC: 0.0723119 instructions: 100000000 cycles: 1382897654
cpu0_DTLB TOTAL     ACCESS:   20766997  HIT:    2976682  MISS:   17790315
cpu0_DTLB LOAD      ACCESS:   20271274  HIT:    2536852  MISS:   17734422
cpu0_DTLB RFO       ACCESS:     495723  HIT:     439830  MISS:      55893
cpu0_DTLB PREFETCH  ACCESS:          0  HIT:          0  MISS:          0
cpu0_DTLB WRITEBACK ACCESS:          0  HIT:          0  MISS:          0
cpu0_DTLB TRANSLATION ACCESS:          0  HIT:          0  MISS:          0
cpu0_DTLB PREFETCH  REQUESTED:          0  ISSUED:          0  USEFUL:          0  USELESS:          0
cpu0_DTLB AVERAGE MISS LATENCY: 10.4745 cycles
cpu0_ITLB TOTAL     ACCESS:   11316081  HIT:   11316081  MISS:          0
cpu0_ITLB LOAD      ACCESS:   11316081  HIT:   11316081  MISS:          0
cpu0_ITLB RFO       ACCESS:          0  HIT:          0  MISS:          0
cpu0_ITLB PREFETCH  ACCESS:          0  HIT:          0  MISS:          0
cpu0_ITLB WRITEBACK ACCESS:          0  HIT:          0  MISS:          0
cpu0_ITLB TRANSLATION ACCESS:          0  HIT:          0  MISS:          0
cpu0_ITLB PREFETCH  REQUESTED:          0  ISSUED:          0  USEFUL:          0  USELESS:          0
cpu0_ITLB AVERAGE MISS LATENCY: -nan cycles
cpu0_L1I TOTAL     ACCESS:          4  HIT:          4  MISS:          0
cpu0_L1I LOAD      ACCESS:          4  HIT:          4  MISS:          0
cpu0_L1I RFO       ACCESS:          0  HIT:          0  MISS:          0
cpu0_L1I PREFETCH  ACCESS:          0  HIT:          0  MISS:          0
cpu0_L1I WRITEBACK ACCESS:          0  HIT:          0  MISS:          0
cpu0_L1I TRANSLATION ACCESS:          0  HIT:          0  MISS:          0
cpu0_L1I PREFETCH  REQUESTED:          0  ISSUED:          0  USEFUL:          0  USELESS:          0
cpu0_L1I AVERAGE MISS LATENCY: -nan cycles
cpu0_STLB TOTAL     ACCESS:   17790315  HIT:   17413150  MISS:     377165
cpu0_STLB LOAD      ACCESS:   17734422  HIT:   17359394  MISS:     375028
cpu0_STLB RFO       ACCESS:      55893  HIT:      53756  MISS:       2137
cpu0_STLB PREFETCH  ACCESS:          0  HIT:          0  MISS:          0
cpu0_STLB WRITEBACK ACCESS:          0  HIT:          0  MISS:          0
cpu0_STLB TRANSLATION ACCESS:          0  HIT:          0  MISS:          0
cpu0_STLB PREFETCH  REQUESTED:          0  ISSUED:          0  USEFUL:          0  USELESS:          0
cpu0_STLB AVERAGE MISS LATENCY: 69.5247 cycles
cpu0_L1D TOTAL     ACCESS:   21385017  HIT:    3441093  MISS:   17943924
cpu0_L1D LOAD      ACCESS:   20344197  HIT:    2560204  MISS:   17783993
cpu0_L1D RFO       ACCESS:     664699  HIT:     633040  MISS:      31659
cpu0_L1D PREFETCH  ACCESS:          0  HIT:          0  MISS:          0
cpu0_L1D WRITEBACK ACCESS:          0  HIT:          0  MISS:          0
cpu0_L1D TRANSLATION ACCESS:     376121  HIT:     247849  MISS:     128272
cpu0_L1D PREFETCH  REQUESTED:          0  ISSUED:          0  USEFUL:          0  USELESS:          0
cpu0_L1D AVERAGE MISS LATENCY: 227.892 cycles
cpu0_L2C TOTAL     ACCESS:   18302828  HIT:    5792562  MISS:   12510266
cpu0_L2C LOAD      ACCESS:   17783966  HIT:    5386605  MISS:   12397361
cpu0_L2C RFO       ACCESS:      31658  HIT:       9149  MISS:      22509
cpu0_L2C PREFETCH  ACCESS:          0  HIT:          0  MISS:          0
cpu0_L2C WRITEBACK ACCESS:     358932  HIT:     358930  MISS:          2
cpu0_L2C TRANSLATION ACCESS:     128272  HIT:      37878  MISS:      90394
cpu0_L2C PREFETCH  REQUESTED:          0  ISSUED:          0  USEFUL:          0  USELESS:          0
cpu0_L2C AVERAGE MISS LATENCY: 311.084 cycles
LLC TOTAL     ACCESS:   12800491  HIT:    5937596  MISS:    6862895
LLC LOAD      ACCESS:   12397361  HIT:    5652011  MISS:    6745350
LLC RFO       ACCESS:      22509  HIT:      13306  MISS:       9203
LLC PREFETCH  ACCESS:          0  HIT:          0  MISS:          0
LLC WRITEBACK ACCESS:     290227  HIT:     186409  MISS:     103818
LLC TRANSLATION ACCESS:      90394  HIT:      85870  MISS:       4524
LLC PREFETCH  REQUESTED:          0  ISSUED:          0  USEFUL:          0  USELESS:          0
LLC AVERAGE MISS LATENCY: 528.789 cycles
Insertion Distribution: 
	LOAD 161853 0 132087 7158851 
	RFO 3242 0 7772 1843 
	PREF 0 0 0 0 
	WRITEBACK 0 0 0 146134 
	 6 0 142 4882 
Total Prefetch Downgrades: 0

DRAM Statistics
 CHANNEL 0
 RQ ROW_BUFFER_HIT:       2901  ROW_BUFFER_MISS:    6756072
 DBUS AVG_CONGESTED_CYCLE:    3.96326
 WQ ROW_BUFFER_HIT:      10429  ROW_BUFFER_MISS:     145856  FULL:          0


CPU 0 Branch Prediction Accuracy: 91.6559% MPKI: 25.5287 Average ROB Occupancy at Mispredict: 24.4877
Branch type MPKI
BRANCH_DIRECT_JUMP: 2e-05
BRANCH_INDIRECT: 0
BRANCH_CONDITIONAL: 25.5287
BRANCH_DIRECT_CALL: 0
BRANCH_INDIRECT_CALL: 0
BRANCH_RETURN: 0

