
*** ChampSim Multicore Out-of-Order Simulator ***

Warmup Instructions: 10000000
Simulation Instructions: 100000000
Number of CPUs: 1
Off-chip DRAM Size: 4 GiB Channels: 1 Width: 64-bit Data Rate: 3200 MT/s

VirtualMemory physical capacity: 8588881920 num_ppages: 2096895
VirtualMemory page size: 4096 log2_page_size: 12

CPU 0 runs /datasets/cs240c-wi22-a00-public/data/Assignment2/sphinx3_2520B.trace.xz
CPU 0 Bimodal branch predictor
Basic BTB sets: 1024 ways: 8 indirect buffer size: 4096 RAS size: 64
Initialize SRRIP state
Heartbeat CPU 0 instructions: 10000000 cycles: 2589701 heartbeat IPC: 3.86145 cumulative IPC: 3.86145 (Simulation time: 0 hr 0 min 28 sec) 

Warmup complete CPU 0 instructions: 10000004 cycles: 2589702 (Simulation time: 0 hr 0 min 28 sec) 

Heartbeat CPU 0 instructions: 20000002 cycles: 8769120 heartbeat IPC: 1.61828 cumulative IPC: 1.61828 (Simulation time: 0 hr 1 min 10 sec) 
Heartbeat CPU 0 instructions: 30000000 cycles: 14852618 heartbeat IPC: 1.64379 cumulative IPC: 1.63093 (Simulation time: 0 hr 1 min 52 sec) 
Heartbeat CPU 0 instructions: 40000002 cycles: 20585159 heartbeat IPC: 1.74443 cumulative IPC: 1.66709 (Simulation time: 0 hr 2 min 35 sec) 
Heartbeat CPU 0 instructions: 50000002 cycles: 26617431 heartbeat IPC: 1.65775 cumulative IPC: 1.66474 (Simulation time: 0 hr 3 min 17 sec) 
Heartbeat CPU 0 instructions: 60000001 cycles: 32424093 heartbeat IPC: 1.72216 cumulative IPC: 1.67592 (Simulation time: 0 hr 3 min 58 sec) 
Heartbeat CPU 0 instructions: 70000004 cycles: 38081112 heartbeat IPC: 1.76772 cumulative IPC: 1.69055 (Simulation time: 0 hr 4 min 40 sec) 
Heartbeat CPU 0 instructions: 80000000 cycles: 43859883 heartbeat IPC: 1.73047 cumulative IPC: 1.69614 (Simulation time: 0 hr 5 min 17 sec) 
Heartbeat CPU 0 instructions: 90000003 cycles: 49555377 heartbeat IPC: 1.75577 cumulative IPC: 1.70337 (Simulation time: 0 hr 5 min 52 sec) 
Heartbeat CPU 0 instructions: 100000002 cycles: 55453037 heartbeat IPC: 1.69559 cumulative IPC: 1.7025 (Simulation time: 0 hr 6 min 30 sec) 
Heartbeat CPU 0 instructions: 110000004 cycles: 63216422 heartbeat IPC: 1.2881 cumulative IPC: 1.64944 (Simulation time: 0 hr 7 min 13 sec) 
Finished CPU 0 instructions: 100000000 cycles: 60626720 cumulative IPC: 1.64944 (Simulation time: 0 hr 7 min 13 sec) 

ChampSim completed all CPUs

Region of Interest Statistics

CPU 0 cumulative IPC: 1.64944 instructions: 100000000 cycles: 60626720
cpu0_DTLB TOTAL     ACCESS:   16099390  HIT:   16043548  MISS:      55842
cpu0_DTLB LOAD      ACCESS:   15057435  HIT:   15004943  MISS:      52492
cpu0_DTLB RFO       ACCESS:    1041955  HIT:    1038605  MISS:       3350
cpu0_DTLB PREFETCH  ACCESS:          0  HIT:          0  MISS:          0
cpu0_DTLB WRITEBACK ACCESS:          0  HIT:          0  MISS:          0
cpu0_DTLB TRANSLATION ACCESS:          0  HIT:          0  MISS:          0
cpu0_DTLB PREFETCH  REQUESTED:          0  ISSUED:          0  USEFUL:          0  USELESS:          0
cpu0_DTLB AVERAGE MISS LATENCY: 11.3141 cycles
cpu0_ITLB TOTAL     ACCESS:    9583389  HIT:    9583347  MISS:         42
cpu0_ITLB LOAD      ACCESS:    9583389  HIT:    9583347  MISS:         42
cpu0_ITLB RFO       ACCESS:          0  HIT:          0  MISS:          0
cpu0_ITLB PREFETCH  ACCESS:          0  HIT:          0  MISS:          0
cpu0_ITLB WRITEBACK ACCESS:          0  HIT:          0  MISS:          0
cpu0_ITLB TRANSLATION ACCESS:          0  HIT:          0  MISS:          0
cpu0_ITLB PREFETCH  REQUESTED:          0  ISSUED:          0  USEFUL:          0  USELESS:          0
cpu0_ITLB AVERAGE MISS LATENCY: 139.762 cycles
cpu0_L1I TOTAL     ACCESS:     267717  HIT:     266422  MISS:       1295
cpu0_L1I LOAD      ACCESS:     267717  HIT:     266422  MISS:       1295
cpu0_L1I RFO       ACCESS:          0  HIT:          0  MISS:          0
cpu0_L1I PREFETCH  ACCESS:          0  HIT:          0  MISS:          0
cpu0_L1I WRITEBACK ACCESS:          0  HIT:          0  MISS:          0
cpu0_L1I TRANSLATION ACCESS:          0  HIT:          0  MISS:          0
cpu0_L1I PREFETCH  REQUESTED:          0  ISSUED:          0  USEFUL:          0  USELESS:          0
cpu0_L1I AVERAGE MISS LATENCY: 149.837 cycles
cpu0_STLB TOTAL     ACCESS:      55884  HIT:      51077  MISS:       4807
cpu0_STLB LOAD      ACCESS:      52534  HIT:      47859  MISS:       4675
cpu0_STLB RFO       ACCESS:       3350  HIT:       3218  MISS:        132
cpu0_STLB PREFETCH  ACCESS:          0  HIT:          0  MISS:          0
cpu0_STLB WRITEBACK ACCESS:          0  HIT:          0  MISS:          0
cpu0_STLB TRANSLATION ACCESS:          0  HIT:          0  MISS:          0
cpu0_STLB PREFETCH  REQUESTED:          0  ISSUED:          0  USEFUL:          0  USELESS:          0
cpu0_STLB AVERAGE MISS LATENCY: 27.5072 cycles
cpu0_L1D TOTAL     ACCESS:   11655881  HIT:   10316496  MISS:    1339385
cpu0_L1D LOAD      ACCESS:   10297817  HIT:    9084081  MISS:    1213736
cpu0_L1D RFO       ACCESS:    1353535  HIT:    1228000  MISS:     125535
cpu0_L1D PREFETCH  ACCESS:          0  HIT:          0  MISS:          0
cpu0_L1D WRITEBACK ACCESS:          0  HIT:          0  MISS:          0
cpu0_L1D TRANSLATION ACCESS:       4529  HIT:       4415  MISS:        114
cpu0_L1D PREFETCH  REQUESTED:          0  ISSUED:          0  USEFUL:          0  USELESS:          0
cpu0_L1D AVERAGE MISS LATENCY: 69.3395 cycles
cpu0_L2C TOTAL     ACCESS:    1472891  HIT:     251124  MISS:    1221767
cpu0_L2C LOAD      ACCESS:    1215030  HIT:     113619  MISS:    1101411
cpu0_L2C RFO       ACCESS:     125535  HIT:       5426  MISS:     120109
cpu0_L2C PREFETCH  ACCESS:          0  HIT:          0  MISS:          0
cpu0_L2C WRITEBACK ACCESS:     132212  HIT:     132050  MISS:        162
cpu0_L2C TRANSLATION ACCESS:        114  HIT:         29  MISS:         85
cpu0_L2C PREFETCH  REQUESTED:          0  ISSUED:          0  USEFUL:          0  USELESS:          0
cpu0_L2C AVERAGE MISS LATENCY: 64.0811 cycles
LLC TOTAL     ACCESS:    1348258  HIT:    1012013  MISS:     336245
LLC LOAD      ACCESS:    1101411  HIT:     771615  MISS:     329796
LLC RFO       ACCESS:     120109  HIT:     115923  MISS:       4186
LLC PREFETCH  ACCESS:          0  HIT:          0  MISS:          0
LLC WRITEBACK ACCESS:     126653  HIT:     124416  MISS:       2237
LLC TRANSLATION ACCESS:         85  HIT:         59  MISS:         26
LLC PREFETCH  REQUESTED:          0  ISSUED:          0  USEFUL:          0  USELESS:          0
LLC AVERAGE MISS LATENCY: 156.54 cycles
Insertion Distribution: 
	LOAD 6058 0 69564 333721 
	RFO 1625 0 5565 1691 
	PREF 0 0 0 0 
	WRITEBACK 0 0 0 2309 
	 0 0 31 12 
Total Prefetch Downgrades: 0

DRAM Statistics
 CHANNEL 0
 RQ ROW_BUFFER_HIT:     104332  ROW_BUFFER_MISS:     229613
 DBUS AVG_CONGESTED_CYCLE:    3.78299
 WQ ROW_BUFFER_HIT:       3186  ROW_BUFFER_MISS:       2290  FULL:          0


CPU 0 Branch Prediction Accuracy: 93.1904% MPKI: 5.9173 Average ROB Occupancy at Mispredict: 187.844
Branch type MPKI
BRANCH_DIRECT_JUMP: 0.00106
BRANCH_INDIRECT: 0
BRANCH_CONDITIONAL: 5.91482
BRANCH_DIRECT_CALL: 0.00069
BRANCH_INDIRECT_CALL: 3e-05
BRANCH_RETURN: 0.0007

