
*** ChampSim Multicore Out-of-Order Simulator ***

Warmup Instructions: 10000000
Simulation Instructions: 100000000
Number of CPUs: 1
Off-chip DRAM Size: 4 GiB Channels: 1 Width: 64-bit Data Rate: 3200 MT/s

VirtualMemory physical capacity: 8588881920 num_ppages: 2096895
VirtualMemory page size: 4096 log2_page_size: 12

CPU 0 runs /datasets/cs240c-wi22-a00-public/data/Assignment2/wrf_1228B.trace.xz
CPU 0 Bimodal branch predictor
Basic BTB sets: 1024 ways: 8 indirect buffer size: 4096 RAS size: 64
Initialize SRRIP state
Heartbeat CPU 0 instructions: 10000001 cycles: 3904493 heartbeat IPC: 2.56115 cumulative IPC: 2.56115 (Simulation time: 0 hr 0 min 50 sec) 

Warmup complete CPU 0 instructions: 10000001 cycles: 3904493 (Simulation time: 0 hr 0 min 50 sec) 

Heartbeat CPU 0 instructions: 20000001 cycles: 12380930 heartbeat IPC: 1.17974 cumulative IPC: 1.17974 (Simulation time: 0 hr 1 min 57 sec) 
Heartbeat CPU 0 instructions: 30000003 cycles: 23960423 heartbeat IPC: 0.863596 cumulative IPC: 0.997211 (Simulation time: 0 hr 3 min 19 sec) 
Heartbeat CPU 0 instructions: 40000004 cycles: 37859497 heartbeat IPC: 0.719472 cumulative IPC: 0.883522 (Simulation time: 0 hr 4 min 57 sec) 
Heartbeat CPU 0 instructions: 50000001 cycles: 45969669 heartbeat IPC: 1.23302 cumulative IPC: 0.950905 (Simulation time: 0 hr 6 min 3 sec) 
Heartbeat CPU 0 instructions: 60000003 cycles: 56319520 heartbeat IPC: 0.966198 cumulative IPC: 0.953925 (Simulation time: 0 hr 7 min 20 sec) 
Heartbeat CPU 0 instructions: 70000001 cycles: 67955515 heartbeat IPC: 0.859402 cumulative IPC: 0.936753 (Simulation time: 0 hr 8 min 33 sec) 
Heartbeat CPU 0 instructions: 80000004 cycles: 77665508 heartbeat IPC: 1.02987 cumulative IPC: 0.949011 (Simulation time: 0 hr 9 min 30 sec) 
Heartbeat CPU 0 instructions: 90000001 cycles: 87350503 heartbeat IPC: 1.03252 cumulative IPC: 0.958704 (Simulation time: 0 hr 10 min 26 sec) 
Heartbeat CPU 0 instructions: 100000002 cycles: 97028843 heartbeat IPC: 1.03324 cumulative IPC: 0.96645 (Simulation time: 0 hr 11 min 20 sec) 
Heartbeat CPU 0 instructions: 110000000 cycles: 106699006 heartbeat IPC: 1.03411 cumulative IPC: 0.972815 (Simulation time: 0 hr 12 min 13 sec) 
Finished CPU 0 instructions: 100000004 cycles: 102794514 cumulative IPC: 0.972815 (Simulation time: 0 hr 12 min 13 sec) 

ChampSim completed all CPUs

Region of Interest Statistics

CPU 0 cumulative IPC: 0.972815 instructions: 100000004 cycles: 102794514
cpu0_DTLB TOTAL     ACCESS:   19660837  HIT:   19564599  MISS:      96238
cpu0_DTLB LOAD      ACCESS:   17651356  HIT:   17569426  MISS:      81930
cpu0_DTLB RFO       ACCESS:    2009481  HIT:    1995173  MISS:      14308
cpu0_DTLB PREFETCH  ACCESS:          0  HIT:          0  MISS:          0
cpu0_DTLB WRITEBACK ACCESS:          0  HIT:          0  MISS:          0
cpu0_DTLB TRANSLATION ACCESS:          0  HIT:          0  MISS:          0
cpu0_DTLB PREFETCH  REQUESTED:          0  ISSUED:          0  USEFUL:          0  USELESS:          0
cpu0_DTLB AVERAGE MISS LATENCY: 20.0758 cycles
cpu0_ITLB TOTAL     ACCESS:    4194099  HIT:    4194087  MISS:         12
cpu0_ITLB LOAD      ACCESS:    4194099  HIT:    4194087  MISS:         12
cpu0_ITLB RFO       ACCESS:          0  HIT:          0  MISS:          0
cpu0_ITLB PREFETCH  ACCESS:          0  HIT:          0  MISS:          0
cpu0_ITLB WRITEBACK ACCESS:          0  HIT:          0  MISS:          0
cpu0_ITLB TRANSLATION ACCESS:          0  HIT:          0  MISS:          0
cpu0_ITLB PREFETCH  REQUESTED:          0  ISSUED:          0  USEFUL:          0  USELESS:          0
cpu0_ITLB AVERAGE MISS LATENCY: 206.5 cycles
cpu0_L1I TOTAL     ACCESS:    6671530  HIT:    6670782  MISS:        748
cpu0_L1I LOAD      ACCESS:    6671530  HIT:    6670782  MISS:        748
cpu0_L1I RFO       ACCESS:          0  HIT:          0  MISS:          0
cpu0_L1I PREFETCH  ACCESS:          0  HIT:          0  MISS:          0
cpu0_L1I WRITEBACK ACCESS:          0  HIT:          0  MISS:          0
cpu0_L1I TRANSLATION ACCESS:          0  HIT:          0  MISS:          0
cpu0_L1I PREFETCH  REQUESTED:          0  ISSUED:          0  USEFUL:          0  USELESS:          0
cpu0_L1I AVERAGE MISS LATENCY: 344.453 cycles
cpu0_STLB TOTAL     ACCESS:      96250  HIT:      86696  MISS:       9554
cpu0_STLB LOAD      ACCESS:      81942  HIT:      75034  MISS:       6908
cpu0_STLB RFO       ACCESS:      14308  HIT:      11662  MISS:       2646
cpu0_STLB PREFETCH  ACCESS:          0  HIT:          0  MISS:          0
cpu0_STLB WRITEBACK ACCESS:          0  HIT:          0  MISS:          0
cpu0_STLB TRANSLATION ACCESS:          0  HIT:          0  MISS:          0
cpu0_STLB PREFETCH  REQUESTED:          0  ISSUED:          0  USEFUL:          0  USELESS:          0
cpu0_STLB AVERAGE MISS LATENCY: 111.796 cycles
cpu0_L1D TOTAL     ACCESS:   18915888  HIT:   17557497  MISS:    1358391
cpu0_L1D LOAD      ACCESS:   14877371  HIT:   13778328  MISS:    1099043
cpu0_L1D RFO       ACCESS:    4028971  HIT:    3770411  MISS:     258560
cpu0_L1D PREFETCH  ACCESS:          0  HIT:          0  MISS:          0
cpu0_L1D WRITEBACK ACCESS:          0  HIT:          0  MISS:          0
cpu0_L1D TRANSLATION ACCESS:       9546  HIT:       8758  MISS:        788
cpu0_L1D PREFETCH  REQUESTED:          0  ISSUED:          0  USEFUL:          0  USELESS:          0
cpu0_L1D AVERAGE MISS LATENCY: 219.43 cycles
cpu0_L2C TOTAL     ACCESS:    1836337  HIT:     802893  MISS:    1033444
cpu0_L2C LOAD      ACCESS:    1099761  HIT:     287137  MISS:     812624
cpu0_L2C RFO       ACCESS:     258557  HIT:      39540  MISS:     219017
cpu0_L2C PREFETCH  ACCESS:          0  HIT:          0  MISS:          0
cpu0_L2C WRITEBACK ACCESS:     477231  HIT:     475539  MISS:       1692
cpu0_L2C TRANSLATION ACCESS:        788  HIT:        677  MISS:        111
cpu0_L2C PREFETCH  REQUESTED:          0  ISSUED:          0  USEFUL:          0  USELESS:          0
cpu0_L2C AVERAGE MISS LATENCY: 274.188 cycles
LLC TOTAL     ACCESS:    1463815  HIT:     421390  MISS:    1042425
LLC LOAD      ACCESS:     812624  HIT:     180939  MISS:     631685
LLC RFO       ACCESS:     219017  HIT:      24975  MISS:     194042
LLC PREFETCH  ACCESS:          0  HIT:          0  MISS:          0
LLC WRITEBACK ACCESS:     432063  HIT:     215430  MISS:     216633
LLC TRANSLATION ACCESS:        111  HIT:         46  MISS:         65
LLC PREFETCH  REQUESTED:          0  ISSUED:          0  USEFUL:          0  USELESS:          0
LLC AVERAGE MISS LATENCY: 251.033 cycles
Insertion Distribution: 
	LOAD 42678 0 133436 624246 
	RFO 26539 0 75097 167512 
	PREF 0 0 0 0 
	WRITEBACK 0 0 0 278376 
	 2 0 60 30 
Total Prefetch Downgrades: 0

DRAM Statistics
 CHANNEL 0
 RQ ROW_BUFFER_HIT:     100297  ROW_BUFFER_MISS:     725047
 DBUS AVG_CONGESTED_CYCLE:    3.93055
 WQ ROW_BUFFER_HIT:      27716  ROW_BUFFER_MISS:     285407  FULL:      35226


CPU 0 Branch Prediction Accuracy: 97.4481% MPKI: 2.04611 Average ROB Occupancy at Mispredict: 259.657
Branch type MPKI
BRANCH_DIRECT_JUMP: 0.00028
BRANCH_INDIRECT: 0
BRANCH_CONDITIONAL: 2.0456
BRANCH_DIRECT_CALL: 0.00011
BRANCH_INDIRECT_CALL: 0
BRANCH_RETURN: 0.00012

