
*** ChampSim Multicore Out-of-Order Simulator ***

Warmup Instructions: 10000000
Simulation Instructions: 100000000
Number of CPUs: 1
Off-chip DRAM Size: 4 GiB Channels: 1 Width: 64-bit Data Rate: 3200 MT/s

VirtualMemory physical capacity: 8588881920 num_ppages: 2096895
VirtualMemory page size: 4096 log2_page_size: 12

CPU 0 runs /datasets/cs240c-wi22-a00-public/data/Assignment2/xalancbmk_748B.trace.xz
CPU 0 Bimodal branch predictor
Basic BTB sets: 1024 ways: 8 indirect buffer size: 4096 RAS size: 64
Initialize SRRIP state
Heartbeat CPU 0 instructions: 10000002 cycles: 2655103 heartbeat IPC: 3.76633 cumulative IPC: 3.76633 (Simulation time: 0 hr 0 min 35 sec) 

Warmup complete CPU 0 instructions: 10000002 cycles: 2655103 (Simulation time: 0 hr 0 min 35 sec) 

Heartbeat CPU 0 instructions: 20000001 cycles: 11802737 heartbeat IPC: 1.09318 cumulative IPC: 1.09318 (Simulation time: 0 hr 1 min 19 sec) 
Heartbeat CPU 0 instructions: 30000002 cycles: 20687664 heartbeat IPC: 1.1255 cumulative IPC: 1.1091 (Simulation time: 0 hr 2 min 2 sec) 
Heartbeat CPU 0 instructions: 40000002 cycles: 30009390 heartbeat IPC: 1.07276 cumulative IPC: 1.09672 (Simulation time: 0 hr 2 min 49 sec) 
Heartbeat CPU 0 instructions: 50000001 cycles: 38518570 heartbeat IPC: 1.1752 cumulative IPC: 1.11534 (Simulation time: 0 hr 3 min 39 sec) 
Heartbeat CPU 0 instructions: 60000003 cycles: 45645930 heartbeat IPC: 1.40304 cumulative IPC: 1.16304 (Simulation time: 0 hr 4 min 32 sec) 
Heartbeat CPU 0 instructions: 70000000 cycles: 51898635 heartbeat IPC: 1.59931 cumulative IPC: 1.21843 (Simulation time: 0 hr 5 min 26 sec) 
Heartbeat CPU 0 instructions: 80000003 cycles: 62262445 heartbeat IPC: 0.964896 cumulative IPC: 1.17435 (Simulation time: 0 hr 6 min 17 sec) 
Heartbeat CPU 0 instructions: 90000003 cycles: 70878698 heartbeat IPC: 1.1606 cumulative IPC: 1.17261 (Simulation time: 0 hr 7 min 5 sec) 
Heartbeat CPU 0 instructions: 100000003 cycles: 78841784 heartbeat IPC: 1.25579 cumulative IPC: 1.18131 (Simulation time: 0 hr 7 min 56 sec) 
Heartbeat CPU 0 instructions: 110000001 cycles: 86093732 heartbeat IPC: 1.37894 cumulative IPC: 1.19849 (Simulation time: 0 hr 8 min 48 sec) 
Finished CPU 0 instructions: 100000004 cycles: 83438630 cumulative IPC: 1.19849 (Simulation time: 0 hr 8 min 48 sec) 

ChampSim completed all CPUs

Region of Interest Statistics

CPU 0 cumulative IPC: 1.19849 instructions: 100000004 cycles: 83438630
cpu0_DTLB TOTAL     ACCESS:   20938117  HIT:   19922874  MISS:    1015243
cpu0_DTLB LOAD      ACCESS:   15325234  HIT:   14390426  MISS:     934808
cpu0_DTLB RFO       ACCESS:    5612883  HIT:    5532448  MISS:      80435
cpu0_DTLB PREFETCH  ACCESS:          0  HIT:          0  MISS:          0
cpu0_DTLB WRITEBACK ACCESS:          0  HIT:          0  MISS:          0
cpu0_DTLB TRANSLATION ACCESS:          0  HIT:          0  MISS:          0
cpu0_DTLB PREFETCH  REQUESTED:          0  ISSUED:          0  USEFUL:          0  USELESS:          0
cpu0_DTLB AVERAGE MISS LATENCY: 12.6446 cycles
cpu0_ITLB TOTAL     ACCESS:    8533083  HIT:    8418048  MISS:     115035
cpu0_ITLB LOAD      ACCESS:    8533083  HIT:    8418048  MISS:     115035
cpu0_ITLB RFO       ACCESS:          0  HIT:          0  MISS:          0
cpu0_ITLB PREFETCH  ACCESS:          0  HIT:          0  MISS:          0
cpu0_ITLB WRITEBACK ACCESS:          0  HIT:          0  MISS:          0
cpu0_ITLB TRANSLATION ACCESS:          0  HIT:          0  MISS:          0
cpu0_ITLB PREFETCH  REQUESTED:          0  ISSUED:          0  USEFUL:          0  USELESS:          0
cpu0_ITLB AVERAGE MISS LATENCY: 9.07991 cycles
cpu0_L1I TOTAL     ACCESS:    5572314  HIT:    5474308  MISS:      98006
cpu0_L1I LOAD      ACCESS:    5572314  HIT:    5474308  MISS:      98006
cpu0_L1I RFO       ACCESS:          0  HIT:          0  MISS:          0
cpu0_L1I PREFETCH  ACCESS:          0  HIT:          0  MISS:          0
cpu0_L1I WRITEBACK ACCESS:          0  HIT:          0  MISS:          0
cpu0_L1I TRANSLATION ACCESS:          0  HIT:          0  MISS:          0
cpu0_L1I PREFETCH  REQUESTED:          0  ISSUED:          0  USEFUL:          0  USELESS:          0
cpu0_L1I AVERAGE MISS LATENCY: 14.7555 cycles
cpu0_STLB TOTAL     ACCESS:    1130278  HIT:    1056266  MISS:      74012
cpu0_STLB LOAD      ACCESS:    1049843  HIT:    1003758  MISS:      46085
cpu0_STLB RFO       ACCESS:      80435  HIT:      52508  MISS:      27927
cpu0_STLB PREFETCH  ACCESS:          0  HIT:          0  MISS:          0
cpu0_STLB WRITEBACK ACCESS:          0  HIT:          0  MISS:          0
cpu0_STLB TRANSLATION ACCESS:          0  HIT:          0  MISS:          0
cpu0_STLB PREFETCH  REQUESTED:          0  ISSUED:          0  USEFUL:          0  USELESS:          0
cpu0_STLB AVERAGE MISS LATENCY: 49.9623 cycles
cpu0_L1D TOTAL     ACCESS:   22866939  HIT:   21392366  MISS:    1474573
cpu0_L1D LOAD      ACCESS:   13615558  HIT:   12402196  MISS:    1213362
cpu0_L1D RFO       ACCESS:    9184542  HIT:    8938310  MISS:     246232
cpu0_L1D PREFETCH  ACCESS:          0  HIT:          0  MISS:          0
cpu0_L1D WRITEBACK ACCESS:          0  HIT:          0  MISS:          0
cpu0_L1D TRANSLATION ACCESS:      66839  HIT:      51860  MISS:      14979
cpu0_L1D PREFETCH  REQUESTED:          0  ISSUED:          0  USEFUL:          0  USELESS:          0
cpu0_L1D AVERAGE MISS LATENCY: 46.0352 cycles
cpu0_L2C TOTAL     ACCESS:    1931816  HIT:    1588035  MISS:     343781
cpu0_L2C LOAD      ACCESS:    1311326  HIT:    1191258  MISS:     120068
cpu0_L2C RFO       ACCESS:     246219  HIT:      23093  MISS:     223126
cpu0_L2C PREFETCH  ACCESS:          0  HIT:          0  MISS:          0
cpu0_L2C WRITEBACK ACCESS:     359292  HIT:     358805  MISS:        487
cpu0_L2C TRANSLATION ACCESS:      14979  HIT:      14879  MISS:        100
cpu0_L2C PREFETCH  REQUESTED:          0  ISSUED:          0  USEFUL:          0  USELESS:          0
cpu0_L2C AVERAGE MISS LATENCY: 150.766 cycles
LLC TOTAL     ACCESS:     632516  HIT:     227790  MISS:     404726
LLC LOAD      ACCESS:     120068  HIT:      67677  MISS:      52391
LLC RFO       ACCESS:     223126  HIT:      31240  MISS:     191886
LLC PREFETCH  ACCESS:          0  HIT:          0  MISS:          0
LLC WRITEBACK ACCESS:     289222  HIT:     128810  MISS:     160412
LLC TRANSLATION ACCESS:        100  HIT:         63  MISS:         37
LLC PREFETCH  REQUESTED:          0  ISSUED:          0  USEFUL:          0  USELESS:          0
LLC AVERAGE MISS LATENCY: 110.25 cycles
Insertion Distribution: 
	LOAD 17907 0 33652 13612 
	RFO 6023 0 33515 165236 
	PREF 0 0 0 0 
	WRITEBACK 0 0 0 160413 
	 18 0 56 0 
Total Prefetch Downgrades: 0

DRAM Statistics
 CHANNEL 0
 RQ ROW_BUFFER_HIT:      99148  ROW_BUFFER_MISS:     145165
 DBUS AVG_CONGESTED_CYCLE:    3.94616
 WQ ROW_BUFFER_HIT:      18898  ROW_BUFFER_MISS:     193293  FULL:          0


CPU 0 Branch Prediction Accuracy: 96.4988% MPKI: 10.3974 Average ROB Occupancy at Mispredict: 40.2473
Branch type MPKI
BRANCH_DIRECT_JUMP: 0.0002
BRANCH_INDIRECT: 0.35495
BRANCH_CONDITIONAL: 7.96079
BRANCH_DIRECT_CALL: 9e-05
BRANCH_INDIRECT_CALL: 0.45393
BRANCH_RETURN: 1.62746

