
*** ChampSim Multicore Out-of-Order Simulator ***

Warmup Instructions: 10000000
Simulation Instructions: 100000000
Number of CPUs: 1
Off-chip DRAM Size: 4 GiB Channels: 1 Width: 64-bit Data Rate: 3200 MT/s

VirtualMemory physical capacity: 8588881920 num_ppages: 2096895
VirtualMemory page size: 4096 log2_page_size: 12

CPU 0 runs /datasets/cs240c-wi22-a00-public/data/Assignment2/astar_163B.trace.xz
CPU 0 Bimodal branch predictor
Basic BTB sets: 1024 ways: 8 indirect buffer size: 4096 RAS size: 64
Initialize SRRIP state
Heartbeat CPU 0 instructions: 10000003 cycles: 2500067 heartbeat IPC: 3.99989 cumulative IPC: 3.99989 (Simulation time: 0 hr 0 min 33 sec) 

Warmup complete CPU 0 instructions: 10000003 cycles: 2500067 (Simulation time: 0 hr 0 min 33 sec) 

Heartbeat CPU 0 instructions: 20000001 cycles: 19942533 heartbeat IPC: 0.573313 cumulative IPC: 0.573313 (Simulation time: 0 hr 1 min 20 sec) 
Heartbeat CPU 0 instructions: 30000002 cycles: 35867415 heartbeat IPC: 0.627948 cumulative IPC: 0.599388 (Simulation time: 0 hr 2 min 4 sec) 
Heartbeat CPU 0 instructions: 40000000 cycles: 50607971 heartbeat IPC: 0.6784 cumulative IPC: 0.623598 (Simulation time: 0 hr 2 min 43 sec) 
Heartbeat CPU 0 instructions: 50000001 cycles: 65734485 heartbeat IPC: 0.661091 cumulative IPC: 0.632567 (Simulation time: 0 hr 3 min 24 sec) 
Heartbeat CPU 0 instructions: 60000003 cycles: 80589836 heartbeat IPC: 0.673158 cumulative IPC: 0.640289 (Simulation time: 0 hr 4 min 4 sec) 
Heartbeat CPU 0 instructions: 70000002 cycles: 95626949 heartbeat IPC: 0.665021 cumulative IPC: 0.644282 (Simulation time: 0 hr 4 min 44 sec) 
Heartbeat CPU 0 instructions: 80000000 cycles: 110998222 heartbeat IPC: 0.650564 cumulative IPC: 0.645172 (Simulation time: 0 hr 5 min 24 sec) 
Heartbeat CPU 0 instructions: 90000001 cycles: 126009141 heartbeat IPC: 0.666182 cumulative IPC: 0.647726 (Simulation time: 0 hr 6 min 5 sec) 
Heartbeat CPU 0 instructions: 100000003 cycles: 141090517 heartbeat IPC: 0.66307 cumulative IPC: 0.649395 (Simulation time: 0 hr 6 min 46 sec) 
Heartbeat CPU 0 instructions: 110000000 cycles: 156282426 heartbeat IPC: 0.658245 cumulative IPC: 0.65027 (Simulation time: 0 hr 7 min 26 sec) 
Finished CPU 0 instructions: 100000000 cycles: 153782360 cumulative IPC: 0.65027 (Simulation time: 0 hr 7 min 26 sec) 

ChampSim completed all CPUs

Region of Interest Statistics

CPU 0 cumulative IPC: 0.65027 instructions: 100000000 cycles: 153782360
cpu0_DTLB TOTAL     ACCESS:   21351282  HIT:   21042316  MISS:     308966
cpu0_DTLB LOAD      ACCESS:   16588093  HIT:   16287099  MISS:     300994
cpu0_DTLB RFO       ACCESS:    4763189  HIT:    4755217  MISS:       7972
cpu0_DTLB PREFETCH  ACCESS:          0  HIT:          0  MISS:          0
cpu0_DTLB WRITEBACK ACCESS:          0  HIT:          0  MISS:          0
cpu0_DTLB TRANSLATION ACCESS:          0  HIT:          0  MISS:          0
cpu0_DTLB PREFETCH  REQUESTED:          0  ISSUED:          0  USEFUL:          0  USELESS:          0
cpu0_DTLB AVERAGE MISS LATENCY: 10.2727 cycles
cpu0_ITLB TOTAL     ACCESS:   11988969  HIT:   11988962  MISS:          7
cpu0_ITLB LOAD      ACCESS:   11988969  HIT:   11988962  MISS:          7
cpu0_ITLB RFO       ACCESS:          0  HIT:          0  MISS:          0
cpu0_ITLB PREFETCH  ACCESS:          0  HIT:          0  MISS:          0
cpu0_ITLB WRITEBACK ACCESS:          0  HIT:          0  MISS:          0
cpu0_ITLB TRANSLATION ACCESS:          0  HIT:          0  MISS:          0
cpu0_ITLB PREFETCH  REQUESTED:          0  ISSUED:          0  USEFUL:          0  USELESS:          0
cpu0_ITLB AVERAGE MISS LATENCY: 314.429 cycles
cpu0_L1I TOTAL     ACCESS:      30455  HIT:      30369  MISS:         86
cpu0_L1I LOAD      ACCESS:      30455  HIT:      30369  MISS:         86
cpu0_L1I RFO       ACCESS:          0  HIT:          0  MISS:          0
cpu0_L1I PREFETCH  ACCESS:          0  HIT:          0  MISS:          0
cpu0_L1I WRITEBACK ACCESS:          0  HIT:          0  MISS:          0
cpu0_L1I TRANSLATION ACCESS:          0  HIT:          0  MISS:          0
cpu0_L1I PREFETCH  REQUESTED:          0  ISSUED:          0  USEFUL:          0  USELESS:          0
cpu0_L1I AVERAGE MISS LATENCY: 285.977 cycles
cpu0_STLB TOTAL     ACCESS:     308973  HIT:     291503  MISS:      17470
cpu0_STLB LOAD      ACCESS:     301001  HIT:     285663  MISS:      15338
cpu0_STLB RFO       ACCESS:       7972  HIT:       5840  MISS:       2132
cpu0_STLB PREFETCH  ACCESS:          0  HIT:          0  MISS:          0
cpu0_STLB WRITEBACK ACCESS:          0  HIT:          0  MISS:          0
cpu0_STLB TRANSLATION ACCESS:          0  HIT:          0  MISS:          0
cpu0_STLB PREFETCH  REQUESTED:          0  ISSUED:          0  USEFUL:          0  USELESS:          0
cpu0_STLB AVERAGE MISS LATENCY: 22.498 cycles
cpu0_L1D TOTAL     ACCESS:   27132111  HIT:   26717731  MISS:     414380
cpu0_L1D LOAD      ACCESS:   16926103  HIT:   16592783  MISS:     333320
cpu0_L1D RFO       ACCESS:   10188594  HIT:   10107795  MISS:      80799
cpu0_L1D PREFETCH  ACCESS:          0  HIT:          0  MISS:          0
cpu0_L1D WRITEBACK ACCESS:          0  HIT:          0  MISS:          0
cpu0_L1D TRANSLATION ACCESS:      17414  HIT:      17153  MISS:        261
cpu0_L1D PREFETCH  REQUESTED:          0  ISSUED:          0  USEFUL:          0  USELESS:          0
cpu0_L1D AVERAGE MISS LATENCY: 70.0319 cycles
cpu0_L2C TOTAL     ACCESS:     633327  HIT:     441369  MISS:     191958
cpu0_L2C LOAD      ACCESS:     333341  HIT:     209301  MISS:     124040
cpu0_L2C RFO       ACCESS:      80799  HIT:      12919  MISS:      67880
cpu0_L2C PREFETCH  ACCESS:          0  HIT:          0  MISS:          0
cpu0_L2C WRITEBACK ACCESS:     218926  HIT:     218922  MISS:          4
cpu0_L2C TRANSLATION ACCESS:        261  HIT:        227  MISS:         34
cpu0_L2C PREFETCH  REQUESTED:          0  ISSUED:          0  USEFUL:          0  USELESS:          0
cpu0_L2C AVERAGE MISS LATENCY: 127.558 cycles
LLC TOTAL     ACCESS:     335199  HIT:     126061  MISS:     209138
LLC LOAD      ACCESS:     124039  HIT:      35768  MISS:      88271
LLC RFO       ACCESS:      67880  HIT:      23720  MISS:      44160
LLC PREFETCH  ACCESS:          0  HIT:          0  MISS:          0
LLC WRITEBACK ACCESS:     143246  HIT:      66541  MISS:      76705
LLC TRANSLATION ACCESS:         34  HIT:         32  MISS:          2
LLC PREFETCH  REQUESTED:          0  ISSUED:          0  USEFUL:          0  USELESS:          0
LLC AVERAGE MISS LATENCY: 97.8053 cycles
Insertion Distribution: 
	LOAD 3518 0 0 0 0 33305 74100 
	RFO 2732 0 0 0 0 13858 31445 
	PREF 0 0 0 0 0 0 0 
	WRITEBACK 0 0 0 0 0 0 76845 
	 0 0 0 0 0 12 0 
Total Prefetch Downgrades: 0

DRAM Statistics
 CHANNEL 0
 RQ ROW_BUFFER_HIT:      13894  ROW_BUFFER_MISS:     118539
 DBUS AVG_CONGESTED_CYCLE:    3.83135
 WQ ROW_BUFFER_HIT:       7180  ROW_BUFFER_MISS:      85847  FULL:          0


CPU 0 Branch Prediction Accuracy: 70.0225% MPKI: 43.9041 Average ROB Occupancy at Mispredict: 12.2656
Branch type MPKI
BRANCH_DIRECT_JUMP: 0.00019
BRANCH_INDIRECT: 0
BRANCH_CONDITIONAL: 43.9037
BRANCH_DIRECT_CALL: 0.00012
BRANCH_INDIRECT_CALL: 0
BRANCH_RETURN: 0.00012

