
*** ChampSim Multicore Out-of-Order Simulator ***

Warmup Instructions: 10000000
Simulation Instructions: 100000000
Number of CPUs: 1
Off-chip DRAM Size: 4 GiB Channels: 1 Width: 64-bit Data Rate: 3200 MT/s

VirtualMemory physical capacity: 8588881920 num_ppages: 2096895
VirtualMemory page size: 4096 log2_page_size: 12

CPU 0 runs /datasets/cs240c-wi22-a00-public/data/Assignment2/astar_313B.trace.xz
CPU 0 Bimodal branch predictor
Basic BTB sets: 1024 ways: 8 indirect buffer size: 4096 RAS size: 64
Initialize SRRIP state
Heartbeat CPU 0 instructions: 10000003 cycles: 3956013 heartbeat IPC: 2.5278 cumulative IPC: 2.5278 (Simulation time: 0 hr 1 min 1 sec) 

Warmup complete CPU 0 instructions: 10000003 cycles: 3956013 (Simulation time: 0 hr 1 min 1 sec) 

Heartbeat CPU 0 instructions: 20000004 cycles: 58573049 heartbeat IPC: 0.183093 cumulative IPC: 0.183093 (Simulation time: 0 hr 3 min 24 sec) 
Heartbeat CPU 0 instructions: 30000001 cycles: 119346106 heartbeat IPC: 0.164547 cumulative IPC: 0.173325 (Simulation time: 0 hr 6 min 40 sec) 
Heartbeat CPU 0 instructions: 40000000 cycles: 179784475 heartbeat IPC: 0.165458 cumulative IPC: 0.170621 (Simulation time: 0 hr 9 min 57 sec) 
Heartbeat CPU 0 instructions: 50000001 cycles: 232726319 heartbeat IPC: 0.188887 cumulative IPC: 0.174848 (Simulation time: 0 hr 12 min 17 sec) 
Heartbeat CPU 0 instructions: 60000000 cycles: 288823751 heartbeat IPC: 0.178261 cumulative IPC: 0.17552 (Simulation time: 0 hr 14 min 56 sec) 
Heartbeat CPU 0 instructions: 70000000 cycles: 345789717 heartbeat IPC: 0.175543 cumulative IPC: 0.175524 (Simulation time: 0 hr 17 min 40 sec) 
Heartbeat CPU 0 instructions: 80000000 cycles: 399005443 heartbeat IPC: 0.187914 cumulative IPC: 0.177193 (Simulation time: 0 hr 19 min 59 sec) 
Heartbeat CPU 0 instructions: 90000001 cycles: 451881450 heartbeat IPC: 0.189122 cumulative IPC: 0.178601 (Simulation time: 0 hr 22 min 17 sec) 
Heartbeat CPU 0 instructions: 100000000 cycles: 505388376 heartbeat IPC: 0.186892 cumulative IPC: 0.179486 (Simulation time: 0 hr 24 min 37 sec) 
Heartbeat CPU 0 instructions: 110000000 cycles: 560520889 heartbeat IPC: 0.181381 cumulative IPC: 0.179674 (Simulation time: 0 hr 27 min 12 sec) 
Finished CPU 0 instructions: 100000001 cycles: 556564877 cumulative IPC: 0.179674 (Simulation time: 0 hr 27 min 12 sec) 

ChampSim completed all CPUs

Region of Interest Statistics

CPU 0 cumulative IPC: 0.179674 instructions: 100000001 cycles: 556564877
cpu0_DTLB TOTAL     ACCESS:   34346014  HIT:   30527328  MISS:    3818686
cpu0_DTLB LOAD      ACCESS:   26404338  HIT:   23782515  MISS:    2621823
cpu0_DTLB RFO       ACCESS:    7941676  HIT:    6744813  MISS:    1196863
cpu0_DTLB PREFETCH  ACCESS:          0  HIT:          0  MISS:          0
cpu0_DTLB WRITEBACK ACCESS:          0  HIT:          0  MISS:          0
cpu0_DTLB TRANSLATION ACCESS:          0  HIT:          0  MISS:          0
cpu0_DTLB PREFETCH  REQUESTED:          0  ISSUED:          0  USEFUL:          0  USELESS:          0
cpu0_DTLB AVERAGE MISS LATENCY: 152.883 cycles
cpu0_ITLB TOTAL     ACCESS:   11440308  HIT:   11440308  MISS:          0
cpu0_ITLB LOAD      ACCESS:   11440308  HIT:   11440308  MISS:          0
cpu0_ITLB RFO       ACCESS:          0  HIT:          0  MISS:          0
cpu0_ITLB PREFETCH  ACCESS:          0  HIT:          0  MISS:          0
cpu0_ITLB WRITEBACK ACCESS:          0  HIT:          0  MISS:          0
cpu0_ITLB TRANSLATION ACCESS:          0  HIT:          0  MISS:          0
cpu0_ITLB PREFETCH  REQUESTED:          0  ISSUED:          0  USEFUL:          0  USELESS:          0
cpu0_ITLB AVERAGE MISS LATENCY: -nan cycles
cpu0_L1I TOTAL     ACCESS:        129  HIT:        126  MISS:          3
cpu0_L1I LOAD      ACCESS:        129  HIT:        126  MISS:          3
cpu0_L1I RFO       ACCESS:          0  HIT:          0  MISS:          0
cpu0_L1I PREFETCH  ACCESS:          0  HIT:          0  MISS:          0
cpu0_L1I WRITEBACK ACCESS:          0  HIT:          0  MISS:          0
cpu0_L1I TRANSLATION ACCESS:          0  HIT:          0  MISS:          0
cpu0_L1I PREFETCH  REQUESTED:          0  ISSUED:          0  USEFUL:          0  USELESS:          0
cpu0_L1I AVERAGE MISS LATENCY: 197 cycles
cpu0_STLB TOTAL     ACCESS:    3818686  HIT:    1896116  MISS:    1922570
cpu0_STLB LOAD      ACCESS:    2621823  HIT:    1784394  MISS:     837429
cpu0_STLB RFO       ACCESS:    1196863  HIT:     111722  MISS:    1085141
cpu0_STLB PREFETCH  ACCESS:          0  HIT:          0  MISS:          0
cpu0_STLB WRITEBACK ACCESS:          0  HIT:          0  MISS:          0
cpu0_STLB TRANSLATION ACCESS:          0  HIT:          0  MISS:          0
cpu0_STLB PREFETCH  REQUESTED:          0  ISSUED:          0  USEFUL:          0  USELESS:          0
cpu0_STLB AVERAGE MISS LATENCY: 285.597 cycles
cpu0_L1D TOTAL     ACCESS:   35963810  HIT:   30111064  MISS:    5852746
cpu0_L1D LOAD      ACCESS:   24415921  HIT:   20484952  MISS:    3930969
cpu0_L1D RFO       ACCESS:   10121097  HIT:    8210446  MISS:    1910651
cpu0_L1D PREFETCH  ACCESS:          0  HIT:          0  MISS:          0
cpu0_L1D WRITEBACK ACCESS:          0  HIT:          0  MISS:          0
cpu0_L1D TRANSLATION ACCESS:    1426792  HIT:    1415666  MISS:      11126
cpu0_L1D PREFETCH  REQUESTED:          0  ISSUED:          0  USEFUL:          0  USELESS:          0
cpu0_L1D AVERAGE MISS LATENCY: 359.487 cycles
cpu0_L2C TOTAL     ACCESS:    8697464  HIT:    4509643  MISS:    4187821
cpu0_L2C LOAD      ACCESS:    3930962  HIT:    1549446  MISS:    2381516
cpu0_L2C RFO       ACCESS:    1910651  HIT:     106263  MISS:    1804388
cpu0_L2C PREFETCH  ACCESS:          0  HIT:          0  MISS:          0
cpu0_L2C WRITEBACK ACCESS:    2844725  HIT:    2844551  MISS:        174
cpu0_L2C TRANSLATION ACCESS:      11126  HIT:       9383  MISS:       1743
cpu0_L2C PREFETCH  REQUESTED:          0  ISSUED:          0  USEFUL:          0  USELESS:          0
cpu0_L2C AVERAGE MISS LATENCY: 486.997 cycles
LLC TOTAL     ACCESS:    6918202  HIT:    2636346  MISS:    4281856
LLC LOAD      ACCESS:    2381516  HIT:     528368  MISS:    1853148
LLC RFO       ACCESS:    1804386  HIT:     748958  MISS:    1055428
LLC PREFETCH  ACCESS:          0  HIT:          0  MISS:          0
LLC WRITEBACK ACCESS:    2730557  HIT:    1357401  MISS:    1373156
LLC TRANSLATION ACCESS:       1743  HIT:       1619  MISS:        124
LLC PREFETCH  REQUESTED:          0  ISSUED:          0  USEFUL:          0  USELESS:          0
LLC AVERAGE MISS LATENCY: 455.745 cycles
Insertion Distribution: 
	LOAD 52158 0 0 0 0 62690 1950215 
	RFO 36743 0 0 0 0 80848 1202004 
	PREF 0 0 0 0 0 0 0 
	WRITEBACK 0 0 0 0 0 0 1629066 
	 8 0 0 0 0 53 125 
Total Prefetch Downgrades: 0

DRAM Statistics
 CHANNEL 0
 RQ ROW_BUFFER_HIT:      26791  ROW_BUFFER_MISS:    2881013
 DBUS AVG_CONGESTED_CYCLE:     3.9979
 WQ ROW_BUFFER_HIT:     175355  ROW_BUFFER_MISS:    1309673  FULL:      96815


CPU 0 Branch Prediction Accuracy: 88.672% MPKI: 23.9003 Average ROB Occupancy at Mispredict: 22.8511
Branch type MPKI
BRANCH_DIRECT_JUMP: 1e-05
BRANCH_INDIRECT: 0
BRANCH_CONDITIONAL: 23.8999
BRANCH_DIRECT_CALL: 0
BRANCH_INDIRECT_CALL: 0.00038
BRANCH_RETURN: 0

