
*** ChampSim Multicore Out-of-Order Simulator ***

Warmup Instructions: 10000000
Simulation Instructions: 100000000
Number of CPUs: 1
Off-chip DRAM Size: 4 GiB Channels: 1 Width: 64-bit Data Rate: 3200 MT/s

VirtualMemory physical capacity: 8588881920 num_ppages: 2096895
VirtualMemory page size: 4096 log2_page_size: 12

CPU 0 runs /datasets/cs240c-wi22-a00-public/data/Assignment2/cactusADM_734B.trace.xz
CPU 0 Bimodal branch predictor
Basic BTB sets: 1024 ways: 8 indirect buffer size: 4096 RAS size: 64
Initialize SRRIP state
Heartbeat CPU 0 instructions: 10000002 cycles: 3647078 heartbeat IPC: 2.74192 cumulative IPC: 2.74192 (Simulation time: 0 hr 0 min 59 sec) 

Warmup complete CPU 0 instructions: 10000002 cycles: 3647078 (Simulation time: 0 hr 0 min 59 sec) 

Heartbeat CPU 0 instructions: 20000004 cycles: 13580146 heartbeat IPC: 1.00674 cumulative IPC: 1.00674 (Simulation time: 0 hr 2 min 48 sec) 
Heartbeat CPU 0 instructions: 30000000 cycles: 22711648 heartbeat IPC: 1.09511 cumulative IPC: 1.04907 (Simulation time: 0 hr 4 min 32 sec) 
Heartbeat CPU 0 instructions: 40000004 cycles: 32297093 heartbeat IPC: 1.04325 cumulative IPC: 1.04712 (Simulation time: 0 hr 6 min 20 sec) 
Heartbeat CPU 0 instructions: 50000000 cycles: 41231693 heartbeat IPC: 1.11924 cumulative IPC: 1.06427 (Simulation time: 0 hr 8 min 5 sec) 
Heartbeat CPU 0 instructions: 60000002 cycles: 47397915 heartbeat IPC: 1.62174 cumulative IPC: 1.14284 (Simulation time: 0 hr 9 min 33 sec) 
Heartbeat CPU 0 instructions: 70000003 cycles: 56462834 heartbeat IPC: 1.10315 cumulative IPC: 1.13602 (Simulation time: 0 hr 11 min 17 sec) 
Heartbeat CPU 0 instructions: 80000002 cycles: 65123158 heartbeat IPC: 1.15469 cumulative IPC: 1.13865 (Simulation time: 0 hr 13 min 0 sec) 
Heartbeat CPU 0 instructions: 90000000 cycles: 74107126 heartbeat IPC: 1.11309 cumulative IPC: 1.1354 (Simulation time: 0 hr 14 min 44 sec) 
Heartbeat CPU 0 instructions: 100000004 cycles: 80302592 heartbeat IPC: 1.61408 cumulative IPC: 1.17408 (Simulation time: 0 hr 16 min 11 sec) 
Heartbeat CPU 0 instructions: 110000001 cycles: 88842214 heartbeat IPC: 1.17101 cumulative IPC: 1.17378 (Simulation time: 0 hr 17 min 51 sec) 
Finished CPU 0 instructions: 100000004 cycles: 85195137 cumulative IPC: 1.17378 (Simulation time: 0 hr 17 min 51 sec) 

ChampSim completed all CPUs

Region of Interest Statistics

CPU 0 cumulative IPC: 1.17378 instructions: 100000004 cycles: 85195137
cpu0_DTLB TOTAL     ACCESS:   21656157  HIT:   19810416  MISS:    1845741
cpu0_DTLB LOAD      ACCESS:   17783618  HIT:   16526003  MISS:    1257615
cpu0_DTLB RFO       ACCESS:    3872539  HIT:    3284413  MISS:     588126
cpu0_DTLB PREFETCH  ACCESS:          0  HIT:          0  MISS:          0
cpu0_DTLB WRITEBACK ACCESS:          0  HIT:          0  MISS:          0
cpu0_DTLB TRANSLATION ACCESS:          0  HIT:          0  MISS:          0
cpu0_DTLB PREFETCH  REQUESTED:          0  ISSUED:          0  USEFUL:          0  USELESS:          0
cpu0_DTLB AVERAGE MISS LATENCY: 17.6713 cycles
cpu0_ITLB TOTAL     ACCESS:    1528710  HIT:    1528710  MISS:          0
cpu0_ITLB LOAD      ACCESS:    1528710  HIT:    1528710  MISS:          0
cpu0_ITLB RFO       ACCESS:          0  HIT:          0  MISS:          0
cpu0_ITLB PREFETCH  ACCESS:          0  HIT:          0  MISS:          0
cpu0_ITLB WRITEBACK ACCESS:          0  HIT:          0  MISS:          0
cpu0_ITLB TRANSLATION ACCESS:          0  HIT:          0  MISS:          0
cpu0_ITLB PREFETCH  REQUESTED:          0  ISSUED:          0  USEFUL:          0  USELESS:          0
cpu0_ITLB AVERAGE MISS LATENCY: -nan cycles
cpu0_L1I TOTAL     ACCESS:    7866537  HIT:    7866534  MISS:          3
cpu0_L1I LOAD      ACCESS:    7866537  HIT:    7866534  MISS:          3
cpu0_L1I RFO       ACCESS:          0  HIT:          0  MISS:          0
cpu0_L1I PREFETCH  ACCESS:          0  HIT:          0  MISS:          0
cpu0_L1I WRITEBACK ACCESS:          0  HIT:          0  MISS:          0
cpu0_L1I TRANSLATION ACCESS:          0  HIT:          0  MISS:          0
cpu0_L1I PREFETCH  REQUESTED:          0  ISSUED:          0  USEFUL:          0  USELESS:          0
cpu0_L1I AVERAGE MISS LATENCY: 773.333 cycles
cpu0_STLB TOTAL     ACCESS:    1845741  HIT:     893084  MISS:     952657
cpu0_STLB LOAD      ACCESS:    1257615  HIT:     641938  MISS:     615677
cpu0_STLB RFO       ACCESS:     588126  HIT:     251146  MISS:     336980
cpu0_STLB PREFETCH  ACCESS:          0  HIT:          0  MISS:          0
cpu0_STLB WRITEBACK ACCESS:          0  HIT:          0  MISS:          0
cpu0_STLB TRANSLATION ACCESS:          0  HIT:          0  MISS:          0
cpu0_STLB PREFETCH  REQUESTED:          0  ISSUED:          0  USEFUL:          0  USELESS:          0
cpu0_STLB AVERAGE MISS LATENCY: 16.6774 cycles
cpu0_L1D TOTAL     ACCESS:   37590713  HIT:   36270486  MISS:    1320227
cpu0_L1D LOAD      ACCESS:   25669714  HIT:   24618998  MISS:    1050716
cpu0_L1D RFO       ACCESS:   10969323  HIT:   10705175  MISS:     264148
cpu0_L1D PREFETCH  ACCESS:          0  HIT:          0  MISS:          0
cpu0_L1D WRITEBACK ACCESS:          0  HIT:          0  MISS:          0
cpu0_L1D TRANSLATION ACCESS:     951676  HIT:     946313  MISS:       5363
cpu0_L1D PREFETCH  REQUESTED:          0  ISSUED:          0  USEFUL:          0  USELESS:          0
cpu0_L1D AVERAGE MISS LATENCY: 300.111 cycles
cpu0_L2C TOTAL     ACCESS:    1588188  HIT:     691784  MISS:     896404
cpu0_L2C LOAD      ACCESS:    1050719  HIT:     418909  MISS:     631810
cpu0_L2C RFO       ACCESS:     264148  HIT:          0  MISS:     264148
cpu0_L2C PREFETCH  ACCESS:          0  HIT:          0  MISS:          0
cpu0_L2C WRITEBACK ACCESS:     267958  HIT:     267758  MISS:        200
cpu0_L2C TRANSLATION ACCESS:       5363  HIT:       5117  MISS:        246
cpu0_L2C PREFETCH  REQUESTED:          0  ISSUED:          0  USEFUL:          0  USELESS:          0
cpu0_L2C AVERAGE MISS LATENCY: 425.786 cycles
LLC TOTAL     ACCESS:    1162864  HIT:     339885  MISS:     822979
LLC LOAD      ACCESS:     631810  HIT:     157308  MISS:     474502
LLC RFO       ACCESS:     264148  HIT:      76553  MISS:     187595
LLC PREFETCH  ACCESS:          0  HIT:          0  MISS:          0
LLC WRITEBACK ACCESS:     266660  HIT:     106007  MISS:     160653
LLC TRANSLATION ACCESS:        246  HIT:         17  MISS:        229
LLC PREFETCH  REQUESTED:          0  ISSUED:          0  USEFUL:          0  USELESS:          0
LLC AVERAGE MISS LATENCY: 440.904 cycles
Insertion Distribution: 
	LOAD 56329 0 0 0 0 75378 393983 
	RFO 12826 0 0 0 0 20500 166762 
	PREF 0 0 0 0 0 0 0 
	WRITEBACK 0 0 0 0 0 0 162927 
	 0 0 0 0 0 51 220 
Total Prefetch Downgrades: 0

DRAM Statistics
 CHANNEL 0
 RQ ROW_BUFFER_HIT:       6417  ROW_BUFFER_MISS:     655876
 DBUS AVG_CONGESTED_CYCLE:    3.97799
 WQ ROW_BUFFER_HIT:      17964  ROW_BUFFER_MISS:     206896  FULL:        734


CPU 0 Branch Prediction Accuracy: 97.7528% MPKI: 0.04677 Average ROB Occupancy at Mispredict: 283.861
Branch type MPKI
BRANCH_DIRECT_JUMP: 0
BRANCH_INDIRECT: 0
BRANCH_CONDITIONAL: 0.04677
BRANCH_DIRECT_CALL: 0
BRANCH_INDIRECT_CALL: 0
BRANCH_RETURN: 0

