
*** ChampSim Multicore Out-of-Order Simulator ***

Warmup Instructions: 10000000
Simulation Instructions: 100000000
Number of CPUs: 1
Off-chip DRAM Size: 4 GiB Channels: 1 Width: 64-bit Data Rate: 3200 MT/s

VirtualMemory physical capacity: 8588881920 num_ppages: 2096895
VirtualMemory page size: 4096 log2_page_size: 12

CPU 0 runs /datasets/cs240c-wi22-a00-public/data/Assignment2/calculix_3812B.trace.xz
CPU 0 Bimodal branch predictor
Basic BTB sets: 1024 ways: 8 indirect buffer size: 4096 RAS size: 64
Initialize SRRIP state
Heartbeat CPU 0 instructions: 10000000 cycles: 2819851 heartbeat IPC: 3.54629 cumulative IPC: 3.54629 (Simulation time: 0 hr 0 min 35 sec) 

Warmup complete CPU 0 instructions: 10000004 cycles: 2819852 (Simulation time: 0 hr 0 min 35 sec) 

Heartbeat CPU 0 instructions: 20000004 cycles: 6546598 heartbeat IPC: 2.68331 cumulative IPC: 2.68331 (Simulation time: 0 hr 1 min 8 sec) 
Heartbeat CPU 0 instructions: 30000001 cycles: 10290479 heartbeat IPC: 2.67102 cumulative IPC: 2.67715 (Simulation time: 0 hr 1 min 39 sec) 
Heartbeat CPU 0 instructions: 40000000 cycles: 13978914 heartbeat IPC: 2.71118 cumulative IPC: 2.6884 (Simulation time: 0 hr 2 min 32 sec) 
Heartbeat CPU 0 instructions: 50000001 cycles: 18235374 heartbeat IPC: 2.34937 cumulative IPC: 2.59479 (Simulation time: 0 hr 3 min 15 sec) 
Heartbeat CPU 0 instructions: 60000000 cycles: 22170205 heartbeat IPC: 2.5414 cumulative IPC: 2.58393 (Simulation time: 0 hr 3 min 49 sec) 
Heartbeat CPU 0 instructions: 70000000 cycles: 26130345 heartbeat IPC: 2.52516 cumulative IPC: 2.57395 (Simulation time: 0 hr 4 min 23 sec) 
Heartbeat CPU 0 instructions: 80000001 cycles: 29871492 heartbeat IPC: 2.67298 cumulative IPC: 2.58764 (Simulation time: 0 hr 5 min 9 sec) 
Heartbeat CPU 0 instructions: 90000004 cycles: 33953841 heartbeat IPC: 2.44957 cumulative IPC: 2.56954 (Simulation time: 0 hr 5 min 54 sec) 
Heartbeat CPU 0 instructions: 100000001 cycles: 37510203 heartbeat IPC: 2.81186 cumulative IPC: 2.59438 (Simulation time: 0 hr 6 min 26 sec) 
Heartbeat CPU 0 instructions: 110000002 cycles: 41233697 heartbeat IPC: 2.68565 cumulative IPC: 2.60323 (Simulation time: 0 hr 7 min 0 sec) 
Finished CPU 0 instructions: 100000003 cycles: 38413846 cumulative IPC: 2.60323 (Simulation time: 0 hr 7 min 0 sec) 

ChampSim completed all CPUs

Region of Interest Statistics

CPU 0 cumulative IPC: 2.60323 instructions: 100000003 cycles: 38413846
cpu0_DTLB TOTAL     ACCESS:   14474387  HIT:   14447098  MISS:      27289
cpu0_DTLB LOAD      ACCESS:   12817044  HIT:   12790874  MISS:      26170
cpu0_DTLB RFO       ACCESS:    1657343  HIT:    1656224  MISS:       1119
cpu0_DTLB PREFETCH  ACCESS:          0  HIT:          0  MISS:          0
cpu0_DTLB WRITEBACK ACCESS:          0  HIT:          0  MISS:          0
cpu0_DTLB TRANSLATION ACCESS:          0  HIT:          0  MISS:          0
cpu0_DTLB PREFETCH  REQUESTED:          0  ISSUED:          0  USEFUL:          0  USELESS:          0
cpu0_DTLB AVERAGE MISS LATENCY: 14.9439 cycles
cpu0_ITLB TOTAL     ACCESS:    5690334  HIT:    5690306  MISS:         28
cpu0_ITLB LOAD      ACCESS:    5690334  HIT:    5690306  MISS:         28
cpu0_ITLB RFO       ACCESS:          0  HIT:          0  MISS:          0
cpu0_ITLB PREFETCH  ACCESS:          0  HIT:          0  MISS:          0
cpu0_ITLB WRITEBACK ACCESS:          0  HIT:          0  MISS:          0
cpu0_ITLB TRANSLATION ACCESS:          0  HIT:          0  MISS:          0
cpu0_ITLB PREFETCH  REQUESTED:          0  ISSUED:          0  USEFUL:          0  USELESS:          0
cpu0_ITLB AVERAGE MISS LATENCY: 9 cycles
cpu0_L1I TOTAL     ACCESS:     869563  HIT:     868811  MISS:        752
cpu0_L1I LOAD      ACCESS:     869563  HIT:     868811  MISS:        752
cpu0_L1I RFO       ACCESS:          0  HIT:          0  MISS:          0
cpu0_L1I PREFETCH  ACCESS:          0  HIT:          0  MISS:          0
cpu0_L1I WRITEBACK ACCESS:          0  HIT:          0  MISS:          0
cpu0_L1I TRANSLATION ACCESS:          0  HIT:          0  MISS:          0
cpu0_L1I PREFETCH  REQUESTED:          0  ISSUED:          0  USEFUL:          0  USELESS:          0
cpu0_L1I AVERAGE MISS LATENCY: 71.6529 cycles
cpu0_STLB TOTAL     ACCESS:      27317  HIT:      26543  MISS:        774
cpu0_STLB LOAD      ACCESS:      26198  HIT:      25858  MISS:        340
cpu0_STLB RFO       ACCESS:       1119  HIT:        685  MISS:        434
cpu0_STLB PREFETCH  ACCESS:          0  HIT:          0  MISS:          0
cpu0_STLB WRITEBACK ACCESS:          0  HIT:          0  MISS:          0
cpu0_STLB TRANSLATION ACCESS:          0  HIT:          0  MISS:          0
cpu0_STLB PREFETCH  REQUESTED:          0  ISSUED:          0  USEFUL:          0  USELESS:          0
cpu0_STLB AVERAGE MISS LATENCY: 209.491 cycles
cpu0_L1D TOTAL     ACCESS:   16686837  HIT:   15359545  MISS:    1327292
cpu0_L1D LOAD      ACCESS:   11968917  HIT:   10693827  MISS:    1275090
cpu0_L1D RFO       ACCESS:    4717149  HIT:    4664994  MISS:      52155
cpu0_L1D PREFETCH  ACCESS:          0  HIT:          0  MISS:          0
cpu0_L1D WRITEBACK ACCESS:          0  HIT:          0  MISS:          0
cpu0_L1D TRANSLATION ACCESS:        771  HIT:        724  MISS:         47
cpu0_L1D PREFETCH  REQUESTED:          0  ISSUED:          0  USEFUL:          0  USELESS:          0
cpu0_L1D AVERAGE MISS LATENCY: 30.4346 cycles
cpu0_L2C TOTAL     ACCESS:    1837947  HIT:    1545991  MISS:     291956
cpu0_L2C LOAD      ACCESS:    1275831  HIT:    1023138  MISS:     252693
cpu0_L2C RFO       ACCESS:      52155  HIT:      13806  MISS:      38349
cpu0_L2C PREFETCH  ACCESS:          0  HIT:          0  MISS:          0
cpu0_L2C WRITEBACK ACCESS:     509914  HIT:     509016  MISS:        898
cpu0_L2C TRANSLATION ACCESS:         47  HIT:         31  MISS:         16
cpu0_L2C PREFETCH  REQUESTED:          0  ISSUED:          0  USEFUL:          0  USELESS:          0
cpu0_L2C AVERAGE MISS LATENCY: 87.8039 cycles
LLC TOTAL     ACCESS:     430996  HIT:     309573  MISS:     121423
LLC LOAD      ACCESS:     252691  HIT:     177678  MISS:      75013
LLC RFO       ACCESS:      38346  HIT:       8186  MISS:      30160
LLC PREFETCH  ACCESS:          0  HIT:          0  MISS:          0
LLC WRITEBACK ACCESS:     139943  HIT:     123696  MISS:      16247
LLC TRANSLATION ACCESS:         16  HIT:         13  MISS:          3
LLC PREFETCH  REQUESTED:          0  ISSUED:          0  USEFUL:          0  USELESS:          0
LLC AVERAGE MISS LATENCY: 160.499 cycles
Insertion Distribution: 
	LOAD 988 0 0 0 0 29392 52070 
	RFO 6530 0 0 0 0 15138 14552 
	PREF 0 0 0 0 0 0 0 
	WRITEBACK 0 0 0 0 0 0 16247 
	 0 0 0 0 0 13 3 
Total Prefetch Downgrades: 0

DRAM Statistics
 CHANNEL 0
 RQ ROW_BUFFER_HIT:      66720  ROW_BUFFER_MISS:      38273
 DBUS AVG_CONGESTED_CYCLE:    3.93417
 WQ ROW_BUFFER_HIT:       3986  ROW_BUFFER_MISS:      19938  FULL:      21115


CPU 0 Branch Prediction Accuracy: 96.6151% MPKI: 1.9742 Average ROB Occupancy at Mispredict: 165.772
Branch type MPKI
BRANCH_DIRECT_JUMP: 0.00017
BRANCH_INDIRECT: 0.00062
BRANCH_CONDITIONAL: 1.97308
BRANCH_DIRECT_CALL: 0.00017
BRANCH_INDIRECT_CALL: 0
BRANCH_RETURN: 0.00016

