
*** ChampSim Multicore Out-of-Order Simulator ***

Warmup Instructions: 10000000
Simulation Instructions: 100000000
Number of CPUs: 1
Off-chip DRAM Size: 4 GiB Channels: 1 Width: 64-bit Data Rate: 3200 MT/s

VirtualMemory physical capacity: 8588881920 num_ppages: 2096895
VirtualMemory page size: 4096 log2_page_size: 12

CPU 0 runs /datasets/cs240c-wi22-a00-public/data/Assignment2/h264ref_178B.trace.xz
CPU 0 Bimodal branch predictor
Basic BTB sets: 1024 ways: 8 indirect buffer size: 4096 RAS size: 64
Initialize SRRIP state
Heartbeat CPU 0 instructions: 10000000 cycles: 3417071 heartbeat IPC: 2.92648 cumulative IPC: 2.92648 (Simulation time: 0 hr 0 min 52 sec) 

Warmup complete CPU 0 instructions: 10000002 cycles: 3417073 (Simulation time: 0 hr 0 min 52 sec) 

Heartbeat CPU 0 instructions: 20000003 cycles: 9539736 heartbeat IPC: 1.63328 cumulative IPC: 1.63328 (Simulation time: 0 hr 2 min 5 sec) 
Heartbeat CPU 0 instructions: 30000002 cycles: 15247165 heartbeat IPC: 1.7521 cumulative IPC: 1.6906 (Simulation time: 0 hr 3 min 13 sec) 
Heartbeat CPU 0 instructions: 40000002 cycles: 21049308 heartbeat IPC: 1.7235 cumulative IPC: 1.70143 (Simulation time: 0 hr 4 min 2 sec) 
Heartbeat CPU 0 instructions: 50000004 cycles: 28273764 heartbeat IPC: 1.38419 cumulative IPC: 1.60922 (Simulation time: 0 hr 5 min 4 sec) 
Heartbeat CPU 0 instructions: 60000004 cycles: 34368767 heartbeat IPC: 1.64069 cumulative IPC: 1.61542 (Simulation time: 0 hr 6 min 16 sec) 
Heartbeat CPU 0 instructions: 70000003 cycles: 39850547 heartbeat IPC: 1.82422 cumulative IPC: 1.64684 (Simulation time: 0 hr 7 min 15 sec) 
Heartbeat CPU 0 instructions: 80000001 cycles: 47605389 heartbeat IPC: 1.28952 cumulative IPC: 1.58413 (Simulation time: 0 hr 8 min 2 sec) 
Heartbeat CPU 0 instructions: 90000004 cycles: 53913738 heartbeat IPC: 1.5852 cumulative IPC: 1.58426 (Simulation time: 0 hr 9 min 12 sec) 
Heartbeat CPU 0 instructions: 100000000 cycles: 59915364 heartbeat IPC: 1.66621 cumulative IPC: 1.59297 (Simulation time: 0 hr 10 min 21 sec) 
Heartbeat CPU 0 instructions: 110000003 cycles: 65866010 heartbeat IPC: 1.68049 cumulative IPC: 1.60131 (Simulation time: 0 hr 11 min 14 sec) 
Finished CPU 0 instructions: 100000001 cycles: 62448937 cumulative IPC: 1.60131 (Simulation time: 0 hr 11 min 14 sec) 

ChampSim completed all CPUs

Region of Interest Statistics

CPU 0 cumulative IPC: 1.60131 instructions: 100000001 cycles: 62448937
cpu0_DTLB TOTAL     ACCESS:   21805234  HIT:   21678526  MISS:     126708
cpu0_DTLB LOAD      ACCESS:   18462022  HIT:   18368379  MISS:      93643
cpu0_DTLB RFO       ACCESS:    3343212  HIT:    3310147  MISS:      33065
cpu0_DTLB PREFETCH  ACCESS:          0  HIT:          0  MISS:          0
cpu0_DTLB WRITEBACK ACCESS:          0  HIT:          0  MISS:          0
cpu0_DTLB TRANSLATION ACCESS:          0  HIT:          0  MISS:          0
cpu0_DTLB PREFETCH  REQUESTED:          0  ISSUED:          0  USEFUL:          0  USELESS:          0
cpu0_DTLB AVERAGE MISS LATENCY: 9.86986 cycles
cpu0_ITLB TOTAL     ACCESS:    5593291  HIT:    5592948  MISS:        343
cpu0_ITLB LOAD      ACCESS:    5593291  HIT:    5592948  MISS:        343
cpu0_ITLB RFO       ACCESS:          0  HIT:          0  MISS:          0
cpu0_ITLB PREFETCH  ACCESS:          0  HIT:          0  MISS:          0
cpu0_ITLB WRITEBACK ACCESS:          0  HIT:          0  MISS:          0
cpu0_ITLB TRANSLATION ACCESS:          0  HIT:          0  MISS:          0
cpu0_ITLB PREFETCH  REQUESTED:          0  ISSUED:          0  USEFUL:          0  USELESS:          0
cpu0_ITLB AVERAGE MISS LATENCY: 9.86006 cycles
cpu0_L1I TOTAL     ACCESS:    5692565  HIT:    5678052  MISS:      14513
cpu0_L1I LOAD      ACCESS:    5692565  HIT:    5678052  MISS:      14513
cpu0_L1I RFO       ACCESS:          0  HIT:          0  MISS:          0
cpu0_L1I PREFETCH  ACCESS:          0  HIT:          0  MISS:          0
cpu0_L1I WRITEBACK ACCESS:          0  HIT:          0  MISS:          0
cpu0_L1I TRANSLATION ACCESS:          0  HIT:          0  MISS:          0
cpu0_L1I PREFETCH  REQUESTED:          0  ISSUED:          0  USEFUL:          0  USELESS:          0
cpu0_L1I AVERAGE MISS LATENCY: 47.1633 cycles
cpu0_STLB TOTAL     ACCESS:     127051  HIT:     126283  MISS:        768
cpu0_STLB LOAD      ACCESS:      93986  HIT:      93609  MISS:        377
cpu0_STLB RFO       ACCESS:      33065  HIT:      32674  MISS:        391
cpu0_STLB PREFETCH  ACCESS:          0  HIT:          0  MISS:          0
cpu0_STLB WRITEBACK ACCESS:          0  HIT:          0  MISS:          0
cpu0_STLB TRANSLATION ACCESS:          0  HIT:          0  MISS:          0
cpu0_STLB PREFETCH  REQUESTED:          0  ISSUED:          0  USEFUL:          0  USELESS:          0
cpu0_STLB AVERAGE MISS LATENCY: 142.49 cycles
cpu0_L1D TOTAL     ACCESS:   23022624  HIT:   22709631  MISS:     312993
cpu0_L1D LOAD      ACCESS:   17161453  HIT:   16939279  MISS:     222174
cpu0_L1D RFO       ACCESS:    5860493  HIT:    5769809  MISS:      90684
cpu0_L1D PREFETCH  ACCESS:          0  HIT:          0  MISS:          0
cpu0_L1D WRITEBACK ACCESS:          0  HIT:          0  MISS:          0
cpu0_L1D TRANSLATION ACCESS:        678  HIT:        543  MISS:        135
cpu0_L1D PREFETCH  REQUESTED:          0  ISSUED:          0  USEFUL:          0  USELESS:          0
cpu0_L1D AVERAGE MISS LATENCY: 60.4951 cycles
cpu0_L2C TOTAL     ACCESS:     419943  HIT:     239002  MISS:     180941
cpu0_L2C LOAD      ACCESS:     236684  HIT:     140958  MISS:      95726
cpu0_L2C RFO       ACCESS:      90682  HIT:       5587  MISS:      85095
cpu0_L2C PREFETCH  ACCESS:          0  HIT:          0  MISS:          0
cpu0_L2C WRITEBACK ACCESS:      92442  HIT:      92336  MISS:        106
cpu0_L2C TRANSLATION ACCESS:        135  HIT:        121  MISS:         14
cpu0_L2C PREFETCH  REQUESTED:          0  ISSUED:          0  USEFUL:          0  USELESS:          0
cpu0_L2C AVERAGE MISS LATENCY: 88.4407 cycles
LLC TOTAL     ACCESS:     270596  HIT:     199084  MISS:      71512
LLC LOAD      ACCESS:      95726  HIT:      65440  MISS:      30286
LLC RFO       ACCESS:      85095  HIT:      50781  MISS:      34314
LLC PREFETCH  ACCESS:          0  HIT:          0  MISS:          0
LLC WRITEBACK ACCESS:      89761  HIT:      82850  MISS:       6911
LLC TRANSLATION ACCESS:         14  HIT:         13  MISS:          1
LLC PREFETCH  REQUESTED:          0  ISSUED:          0  USEFUL:          0  USELESS:          0
LLC AVERAGE MISS LATENCY: 170.667 cycles
Insertion Distribution: 
	LOAD 6009 0 0 0 0 30530 8635 
	RFO 6725 0 0 0 0 24365 6475 
	PREF 0 0 0 0 0 0 0 
	WRITEBACK 0 0 0 0 0 0 6911 
	 1 0 0 0 0 10 0 
Total Prefetch Downgrades: 0

DRAM Statistics
 CHANNEL 0
 RQ ROW_BUFFER_HIT:      19523  ROW_BUFFER_MISS:      45033
 DBUS AVG_CONGESTED_CYCLE:    3.89821
 WQ ROW_BUFFER_HIT:       3343  ROW_BUFFER_MISS:      21964  FULL:          0


CPU 0 Branch Prediction Accuracy: 94.363% MPKI: 4.48464 Average ROB Occupancy at Mispredict: 160.433
Branch type MPKI
BRANCH_DIRECT_JUMP: 0.00024
BRANCH_INDIRECT: 0.00166
BRANCH_CONDITIONAL: 4.48115
BRANCH_DIRECT_CALL: 6e-05
BRANCH_INDIRECT_CALL: 0.00061
BRANCH_RETURN: 0.00092

