
*** ChampSim Multicore Out-of-Order Simulator ***

Warmup Instructions: 10000000
Simulation Instructions: 100000000
Number of CPUs: 1
Off-chip DRAM Size: 4 GiB Channels: 1 Width: 64-bit Data Rate: 3200 MT/s

VirtualMemory physical capacity: 8588881920 num_ppages: 2096895
VirtualMemory page size: 4096 log2_page_size: 12

CPU 0 runs /datasets/cs240c-wi22-a00-public/data/Assignment2/mcf_158B.trace.xz
CPU 0 Bimodal branch predictor
Basic BTB sets: 1024 ways: 8 indirect buffer size: 4096 RAS size: 64
Initialize SRRIP state
Heartbeat CPU 0 instructions: 10000002 cycles: 3864079 heartbeat IPC: 2.58794 cumulative IPC: 2.58794 (Simulation time: 0 hr 0 min 59 sec) 

Warmup complete CPU 0 instructions: 10000002 cycles: 3864079 (Simulation time: 0 hr 0 min 59 sec) 

Heartbeat CPU 0 instructions: 20000000 cycles: 136625202 heartbeat IPC: 0.0753232 cumulative IPC: 0.0753232 (Simulation time: 0 hr 4 min 47 sec) 
Heartbeat CPU 0 instructions: 30000000 cycles: 263159951 heartbeat IPC: 0.0790297 cumulative IPC: 0.077132 (Simulation time: 0 hr 8 min 30 sec) 
Heartbeat CPU 0 instructions: 40000001 cycles: 387364338 heartbeat IPC: 0.0805125 cumulative IPC: 0.0782268 (Simulation time: 0 hr 12 min 3 sec) 
Heartbeat CPU 0 instructions: 50000000 cycles: 501715498 heartbeat IPC: 0.0874499 cumulative IPC: 0.0803453 (Simulation time: 0 hr 15 min 27 sec) 
Heartbeat CPU 0 instructions: 60000000 cycles: 611844906 heartbeat IPC: 0.0908023 cumulative IPC: 0.0822394 (Simulation time: 0 hr 18 min 41 sec) 
Heartbeat CPU 0 instructions: 70000002 cycles: 719689327 heartbeat IPC: 0.0927262 cumulative IPC: 0.0838193 (Simulation time: 0 hr 21 min 51 sec) 
Heartbeat CPU 0 instructions: 80000000 cycles: 830005715 heartbeat IPC: 0.0906483 cumulative IPC: 0.0847312 (Simulation time: 0 hr 25 min 6 sec) 
Heartbeat CPU 0 instructions: 90000003 cycles: 943914693 heartbeat IPC: 0.0877894 cumulative IPC: 0.0851018 (Simulation time: 0 hr 28 min 30 sec) 
Heartbeat CPU 0 instructions: 100000003 cycles: 1059862575 heartbeat IPC: 0.0862456 cumulative IPC: 0.0852274 (Simulation time: 0 hr 31 min 52 sec) 
Heartbeat CPU 0 instructions: 110000001 cycles: 1177805549 heartbeat IPC: 0.0847867 cumulative IPC: 0.0851831 (Simulation time: 0 hr 35 min 16 sec) 
Finished CPU 0 instructions: 100000002 cycles: 1173941471 cumulative IPC: 0.0851831 (Simulation time: 0 hr 35 min 16 sec) 

ChampSim completed all CPUs

Region of Interest Statistics

CPU 0 cumulative IPC: 0.0851831 instructions: 100000002 cycles: 1173941471
cpu0_DTLB TOTAL     ACCESS:   23547783  HIT:   12726122  MISS:   10821661
cpu0_DTLB LOAD      ACCESS:   20427891  HIT:    9973248  MISS:   10454643
cpu0_DTLB RFO       ACCESS:    3119892  HIT:    2752874  MISS:     367018
cpu0_DTLB PREFETCH  ACCESS:          0  HIT:          0  MISS:          0
cpu0_DTLB WRITEBACK ACCESS:          0  HIT:          0  MISS:          0
cpu0_DTLB TRANSLATION ACCESS:          0  HIT:          0  MISS:          0
cpu0_DTLB PREFETCH  REQUESTED:          0  ISSUED:          0  USEFUL:          0  USELESS:          0
cpu0_DTLB AVERAGE MISS LATENCY: 11.0743 cycles
cpu0_ITLB TOTAL     ACCESS:   12962962  HIT:   12962962  MISS:          0
cpu0_ITLB LOAD      ACCESS:   12962962  HIT:   12962962  MISS:          0
cpu0_ITLB RFO       ACCESS:          0  HIT:          0  MISS:          0
cpu0_ITLB PREFETCH  ACCESS:          0  HIT:          0  MISS:          0
cpu0_ITLB WRITEBACK ACCESS:          0  HIT:          0  MISS:          0
cpu0_ITLB TRANSLATION ACCESS:          0  HIT:          0  MISS:          0
cpu0_ITLB PREFETCH  REQUESTED:          0  ISSUED:          0  USEFUL:          0  USELESS:          0
cpu0_ITLB AVERAGE MISS LATENCY: -nan cycles
cpu0_L1I TOTAL     ACCESS:         19  HIT:         14  MISS:          5
cpu0_L1I LOAD      ACCESS:         19  HIT:         14  MISS:          5
cpu0_L1I RFO       ACCESS:          0  HIT:          0  MISS:          0
cpu0_L1I PREFETCH  ACCESS:          0  HIT:          0  MISS:          0
cpu0_L1I WRITEBACK ACCESS:          0  HIT:          0  MISS:          0
cpu0_L1I TRANSLATION ACCESS:          0  HIT:          0  MISS:          0
cpu0_L1I PREFETCH  REQUESTED:          0  ISSUED:          0  USEFUL:          0  USELESS:          0
cpu0_L1I AVERAGE MISS LATENCY: 194.2 cycles
cpu0_STLB TOTAL     ACCESS:   10821661  HIT:    9710372  MISS:    1111289
cpu0_STLB LOAD      ACCESS:   10454643  HIT:    9350119  MISS:    1104524
cpu0_STLB RFO       ACCESS:     367018  HIT:     360253  MISS:       6765
cpu0_STLB PREFETCH  ACCESS:          0  HIT:          0  MISS:          0
cpu0_STLB WRITEBACK ACCESS:          0  HIT:          0  MISS:          0
cpu0_STLB TRANSLATION ACCESS:          0  HIT:          0  MISS:          0
cpu0_STLB PREFETCH  REQUESTED:          0  ISSUED:          0  USEFUL:          0  USELESS:          0
cpu0_STLB AVERAGE MISS LATENCY: 20.1606 cycles
cpu0_L1D TOTAL     ACCESS:   27609257  HIT:   14065191  MISS:   13544066
cpu0_L1D LOAD      ACCESS:   22262566  HIT:    9092643  MISS:   13169923
cpu0_L1D RFO       ACCESS:    4239032  HIT:    4033901  MISS:     205131
cpu0_L1D PREFETCH  ACCESS:          0  HIT:          0  MISS:          0
cpu0_L1D WRITEBACK ACCESS:          0  HIT:          0  MISS:          0
cpu0_L1D TRANSLATION ACCESS:    1107659  HIT:     938647  MISS:     169012
cpu0_L1D PREFETCH  REQUESTED:          0  ISSUED:          0  USEFUL:          0  USELESS:          0
cpu0_L1D AVERAGE MISS LATENCY: 154.851 cycles
cpu0_L2C TOTAL     ACCESS:   15652746  HIT:    6139521  MISS:    9513225
cpu0_L2C LOAD      ACCESS:   13169560  HIT:    3841562  MISS:    9327998
cpu0_L2C RFO       ACCESS:     205126  HIT:      71865  MISS:     133261
cpu0_L2C PREFETCH  ACCESS:          0  HIT:          0  MISS:          0
cpu0_L2C WRITEBACK ACCESS:    2109048  HIT:    2108695  MISS:        353
cpu0_L2C TRANSLATION ACCESS:     169012  HIT:     117399  MISS:      51613
cpu0_L2C PREFETCH  REQUESTED:          0  ISSUED:          0  USEFUL:          0  USELESS:          0
cpu0_L2C AVERAGE MISS LATENCY: 204.729 cycles
LLC TOTAL     ACCESS:   11019080  HIT:    4704726  MISS:    6314354
LLC LOAD      ACCESS:    9327996  HIT:    3677683  MISS:    5650313
LLC RFO       ACCESS:     133261  HIT:      74494  MISS:      58767
LLC PREFETCH  ACCESS:          0  HIT:          0  MISS:          0
LLC WRITEBACK ACCESS:    1506210  HIT:     909529  MISS:     596681
LLC TRANSLATION ACCESS:      51613  HIT:      43020  MISS:       8593
LLC PREFETCH  REQUESTED:          0  ISSUED:          0  USEFUL:          0  USELESS:          0
LLC AVERAGE MISS LATENCY: 276.808 cycles
Insertion Distribution: 
	LOAD 117537 0 0 0 0 92184 6129145 
	RFO 0 0 0 0 0 643 60621 
	PREF 0 0 0 0 0 0 0 
	WRITEBACK 0 0 0 0 0 0 621341 
	 24 0 0 0 0 242 9092 
Total Prefetch Downgrades: 0

DRAM Statistics
 CHANNEL 0
 RQ ROW_BUFFER_HIT:      10712  ROW_BUFFER_MISS:    5706605
 DBUS AVG_CONGESTED_CYCLE:     3.9505
 WQ ROW_BUFFER_HIT:      35229  ROW_BUFFER_MISS:     649212  FULL:          0


CPU 0 Branch Prediction Accuracy: 85.5988% MPKI: 40.2398 Average ROB Occupancy at Mispredict: 17.2634
Branch type MPKI
BRANCH_DIRECT_JUMP: 4e-05
BRANCH_INDIRECT: 0
BRANCH_CONDITIONAL: 40.2397
BRANCH_DIRECT_CALL: 0
BRANCH_INDIRECT_CALL: 0
BRANCH_RETURN: 0

