
*** ChampSim Multicore Out-of-Order Simulator ***

Warmup Instructions: 10000000
Simulation Instructions: 100000000
Number of CPUs: 1
Off-chip DRAM Size: 4 GiB Channels: 1 Width: 64-bit Data Rate: 3200 MT/s

VirtualMemory physical capacity: 8588881920 num_ppages: 2096895
VirtualMemory page size: 4096 log2_page_size: 12

CPU 0 runs /datasets/cs240c-wi22-a00-public/data/Assignment2/soplex_66B.trace.xz
CPU 0 Bimodal branch predictor
Basic BTB sets: 1024 ways: 8 indirect buffer size: 4096 RAS size: 64
Initialize SRRIP state
Heartbeat CPU 0 instructions: 10000001 cycles: 2688402 heartbeat IPC: 3.71968 cumulative IPC: 3.71968 (Simulation time: 0 hr 0 min 32 sec) 

Warmup complete CPU 0 instructions: 10000001 cycles: 2688402 (Simulation time: 0 hr 0 min 32 sec) 

Heartbeat CPU 0 instructions: 20000003 cycles: 26401112 heartbeat IPC: 0.421715 cumulative IPC: 0.421715 (Simulation time: 0 hr 1 min 51 sec) 
Heartbeat CPU 0 instructions: 30000001 cycles: 50381723 heartbeat IPC: 0.417003 cumulative IPC: 0.419346 (Simulation time: 0 hr 3 min 16 sec) 
Heartbeat CPU 0 instructions: 40000002 cycles: 74338371 heartbeat IPC: 0.417421 cumulative IPC: 0.418702 (Simulation time: 0 hr 4 min 35 sec) 
Heartbeat CPU 0 instructions: 50000002 cycles: 108673174 heartbeat IPC: 0.29125 cumulative IPC: 0.377413 (Simulation time: 0 hr 6 min 46 sec) 
Heartbeat CPU 0 instructions: 60000002 cycles: 146312018 heartbeat IPC: 0.265683 cumulative IPC: 0.348132 (Simulation time: 0 hr 9 min 1 sec) 
Heartbeat CPU 0 instructions: 70000001 cycles: 173264421 heartbeat IPC: 0.371024 cumulative IPC: 0.351749 (Simulation time: 0 hr 10 min 41 sec) 
Heartbeat CPU 0 instructions: 80000001 cycles: 199923944 heartbeat IPC: 0.3751 cumulative IPC: 0.354906 (Simulation time: 0 hr 12 min 18 sec) 
Heartbeat CPU 0 instructions: 90000003 cycles: 224495965 heartbeat IPC: 0.406967 cumulative IPC: 0.360673 (Simulation time: 0 hr 13 min 40 sec) 
Heartbeat CPU 0 instructions: 100000000 cycles: 249295176 heartbeat IPC: 0.403239 cumulative IPC: 0.364953 (Simulation time: 0 hr 15 min 4 sec) 
Heartbeat CPU 0 instructions: 110000004 cycles: 273988350 heartbeat IPC: 0.40497 cumulative IPC: 0.368596 (Simulation time: 0 hr 16 min 31 sec) 
Finished CPU 0 instructions: 100000003 cycles: 271299948 cumulative IPC: 0.368596 (Simulation time: 0 hr 16 min 31 sec) 

ChampSim completed all CPUs

Region of Interest Statistics

CPU 0 cumulative IPC: 0.368596 instructions: 100000003 cycles: 271299948
cpu0_DTLB TOTAL     ACCESS:   19867830  HIT:   19290490  MISS:     577340
cpu0_DTLB LOAD      ACCESS:   14798933  HIT:   14341753  MISS:     457180
cpu0_DTLB RFO       ACCESS:    5068897  HIT:    4948737  MISS:     120160
cpu0_DTLB PREFETCH  ACCESS:          0  HIT:          0  MISS:          0
cpu0_DTLB WRITEBACK ACCESS:          0  HIT:          0  MISS:          0
cpu0_DTLB TRANSLATION ACCESS:          0  HIT:          0  MISS:          0
cpu0_DTLB PREFETCH  REQUESTED:          0  ISSUED:          0  USEFUL:          0  USELESS:          0
cpu0_DTLB AVERAGE MISS LATENCY: 16.5071 cycles
cpu0_ITLB TOTAL     ACCESS:    8269946  HIT:    8269928  MISS:         18
cpu0_ITLB LOAD      ACCESS:    8269946  HIT:    8269928  MISS:         18
cpu0_ITLB RFO       ACCESS:          0  HIT:          0  MISS:          0
cpu0_ITLB PREFETCH  ACCESS:          0  HIT:          0  MISS:          0
cpu0_ITLB WRITEBACK ACCESS:          0  HIT:          0  MISS:          0
cpu0_ITLB TRANSLATION ACCESS:          0  HIT:          0  MISS:          0
cpu0_ITLB PREFETCH  REQUESTED:          0  ISSUED:          0  USEFUL:          0  USELESS:          0
cpu0_ITLB AVERAGE MISS LATENCY: 280.111 cycles
cpu0_L1I TOTAL     ACCESS:    1901436  HIT:    1900575  MISS:        861
cpu0_L1I LOAD      ACCESS:    1901436  HIT:    1900575  MISS:        861
cpu0_L1I RFO       ACCESS:          0  HIT:          0  MISS:          0
cpu0_L1I PREFETCH  ACCESS:          0  HIT:          0  MISS:          0
cpu0_L1I WRITEBACK ACCESS:          0  HIT:          0  MISS:          0
cpu0_L1I TRANSLATION ACCESS:          0  HIT:          0  MISS:          0
cpu0_L1I PREFETCH  REQUESTED:          0  ISSUED:          0  USEFUL:          0  USELESS:          0
cpu0_L1I AVERAGE MISS LATENCY: 302.124 cycles
cpu0_STLB TOTAL     ACCESS:     577358  HIT:     474439  MISS:     102919
cpu0_STLB LOAD      ACCESS:     457198  HIT:     362122  MISS:      95076
cpu0_STLB RFO       ACCESS:     120160  HIT:     112317  MISS:       7843
cpu0_STLB PREFETCH  ACCESS:          0  HIT:          0  MISS:          0
cpu0_STLB WRITEBACK ACCESS:          0  HIT:          0  MISS:          0
cpu0_STLB TRANSLATION ACCESS:          0  HIT:          0  MISS:          0
cpu0_STLB PREFETCH  REQUESTED:          0  ISSUED:          0  USEFUL:          0  USELESS:          0
cpu0_STLB AVERAGE MISS LATENCY: 41.5692 cycles
cpu0_L1D TOTAL     ACCESS:   17067336  HIT:   12750331  MISS:    4317005
cpu0_L1D LOAD      ACCESS:   11089181  HIT:    7490862  MISS:    3598319
cpu0_L1D RFO       ACCESS:    5878108  HIT:    5162064  MISS:     716044
cpu0_L1D PREFETCH  ACCESS:          0  HIT:          0  MISS:          0
cpu0_L1D WRITEBACK ACCESS:          0  HIT:          0  MISS:          0
cpu0_L1D TRANSLATION ACCESS:     100047  HIT:      97405  MISS:       2642
cpu0_L1D PREFETCH  REQUESTED:          0  ISSUED:          0  USEFUL:          0  USELESS:          0
cpu0_L1D AVERAGE MISS LATENCY: 215.533 cycles
cpu0_L2C TOTAL     ACCESS:    6105317  HIT:    2608007  MISS:    3497310
cpu0_L2C LOAD      ACCESS:    3599055  HIT:     717388  MISS:    2881667
cpu0_L2C RFO       ACCESS:     715983  HIT:     101605  MISS:     614378
cpu0_L2C PREFETCH  ACCESS:          0  HIT:          0  MISS:          0
cpu0_L2C WRITEBACK ACCESS:    1787637  HIT:    1787097  MISS:        540
cpu0_L2C TRANSLATION ACCESS:       2642  HIT:       1917  MISS:        725
cpu0_L2C PREFETCH  REQUESTED:          0  ISSUED:          0  USEFUL:          0  USELESS:          0
cpu0_L2C AVERAGE MISS LATENCY: 252.346 cycles
LLC TOTAL     ACCESS:    4876884  HIT:    2260103  MISS:    2616781
LLC LOAD      ACCESS:    2881651  HIT:    1219308  MISS:    1662343
LLC RFO       ACCESS:     614377  HIT:     218977  MISS:     395400
LLC PREFETCH  ACCESS:          0  HIT:          0  MISS:          0
LLC WRITEBACK ACCESS:    1380131  HIT:     821319  MISS:     558812
LLC TRANSLATION ACCESS:        725  HIT:        499  MISS:        226
LLC PREFETCH  REQUESTED:          0  ISSUED:          0  USEFUL:          0  USELESS:          0
LLC AVERAGE MISS LATENCY: 308.115 cycles
Insertion Distribution: 
	LOAD 152551 0 0 0 0 175419 1524385 
	RFO 57225 0 0 0 0 67912 320869 
	PREF 0 0 0 0 0 0 0 
	WRITEBACK 0 0 0 0 0 0 606434 
	 3 0 0 0 0 160 98 
Total Prefetch Downgrades: 0

DRAM Statistics
 CHANNEL 0
 RQ ROW_BUFFER_HIT:     334309  ROW_BUFFER_MISS:    1721672
 DBUS AVG_CONGESTED_CYCLE:    3.94871
 WQ ROW_BUFFER_HIT:      63101  ROW_BUFFER_MISS:     719079  FULL:     707586


CPU 0 Branch Prediction Accuracy: 91.9788% MPKI: 17.5693 Average ROB Occupancy at Mispredict: 27.634
Branch type MPKI
BRANCH_DIRECT_JUMP: 0.00093
BRANCH_INDIRECT: 0.00028
BRANCH_CONDITIONAL: 17.5659
BRANCH_DIRECT_CALL: 0.00064
BRANCH_INDIRECT_CALL: 0.00043
BRANCH_RETURN: 0.00108

