
*** ChampSim Multicore Out-of-Order Simulator ***

Warmup Instructions: 10000000
Simulation Instructions: 100000000
Number of CPUs: 1
Off-chip DRAM Size: 4 GiB Channels: 1 Width: 64-bit Data Rate: 3200 MT/s

VirtualMemory physical capacity: 8588881920 num_ppages: 2096895
VirtualMemory page size: 4096 log2_page_size: 12

CPU 0 runs /datasets/cs240c-wi22-a00-public/data/Assignment2/sphinx3_1339B.trace.xz
CPU 0 Bimodal branch predictor
Basic BTB sets: 1024 ways: 8 indirect buffer size: 4096 RAS size: 64
Initialize SRRIP state
Heartbeat CPU 0 instructions: 10000000 cycles: 2584401 heartbeat IPC: 3.86937 cumulative IPC: 3.86937 (Simulation time: 0 hr 0 min 30 sec) 

Warmup complete CPU 0 instructions: 10000004 cycles: 2584402 (Simulation time: 0 hr 0 min 30 sec) 

Heartbeat CPU 0 instructions: 20000003 cycles: 10184574 heartbeat IPC: 1.31576 cumulative IPC: 1.31576 (Simulation time: 0 hr 1 min 18 sec) 
Heartbeat CPU 0 instructions: 30000001 cycles: 17379068 heartbeat IPC: 1.38995 cumulative IPC: 1.35184 (Simulation time: 0 hr 2 min 6 sec) 
Heartbeat CPU 0 instructions: 40000003 cycles: 25372768 heartbeat IPC: 1.25099 cumulative IPC: 1.31646 (Simulation time: 0 hr 2 min 57 sec) 
Heartbeat CPU 0 instructions: 50000004 cycles: 33170502 heartbeat IPC: 1.28242 cumulative IPC: 1.30778 (Simulation time: 0 hr 3 min 47 sec) 
Heartbeat CPU 0 instructions: 60000003 cycles: 41005581 heartbeat IPC: 1.27631 cumulative IPC: 1.30137 (Simulation time: 0 hr 4 min 36 sec) 
Heartbeat CPU 0 instructions: 70000004 cycles: 48950508 heartbeat IPC: 1.25866 cumulative IPC: 1.29405 (Simulation time: 0 hr 5 min 23 sec) 
Heartbeat CPU 0 instructions: 80000001 cycles: 56798627 heartbeat IPC: 1.27419 cumulative IPC: 1.29117 (Simulation time: 0 hr 6 min 12 sec) 
Heartbeat CPU 0 instructions: 90000001 cycles: 64562697 heartbeat IPC: 1.28798 cumulative IPC: 1.29077 (Simulation time: 0 hr 7 min 2 sec) 
Heartbeat CPU 0 instructions: 100000002 cycles: 72588924 heartbeat IPC: 1.24592 cumulative IPC: 1.28563 (Simulation time: 0 hr 7 min 52 sec) 
Heartbeat CPU 0 instructions: 110000000 cycles: 81272853 heartbeat IPC: 1.15155 cumulative IPC: 1.27083 (Simulation time: 0 hr 8 min 45 sec) 
Finished CPU 0 instructions: 100000001 cycles: 78688452 cumulative IPC: 1.27083 (Simulation time: 0 hr 8 min 45 sec) 

ChampSim completed all CPUs

Region of Interest Statistics

CPU 0 cumulative IPC: 1.27083 instructions: 100000001 cycles: 78688452
cpu0_DTLB TOTAL     ACCESS:   16196277  HIT:   16087502  MISS:     108775
cpu0_DTLB LOAD      ACCESS:   15037218  HIT:   14934394  MISS:     102824
cpu0_DTLB RFO       ACCESS:    1159059  HIT:    1153108  MISS:       5951
cpu0_DTLB PREFETCH  ACCESS:          0  HIT:          0  MISS:          0
cpu0_DTLB WRITEBACK ACCESS:          0  HIT:          0  MISS:          0
cpu0_DTLB TRANSLATION ACCESS:          0  HIT:          0  MISS:          0
cpu0_DTLB PREFETCH  REQUESTED:          0  ISSUED:          0  USEFUL:          0  USELESS:          0
cpu0_DTLB AVERAGE MISS LATENCY: 13.2305 cycles
cpu0_ITLB TOTAL     ACCESS:    9552607  HIT:    9552565  MISS:         42
cpu0_ITLB LOAD      ACCESS:    9552607  HIT:    9552565  MISS:         42
cpu0_ITLB RFO       ACCESS:          0  HIT:          0  MISS:          0
cpu0_ITLB PREFETCH  ACCESS:          0  HIT:          0  MISS:          0
cpu0_ITLB WRITEBACK ACCESS:          0  HIT:          0  MISS:          0
cpu0_ITLB TRANSLATION ACCESS:          0  HIT:          0  MISS:          0
cpu0_ITLB PREFETCH  REQUESTED:          0  ISSUED:          0  USEFUL:          0  USELESS:          0
cpu0_ITLB AVERAGE MISS LATENCY: 122.881 cycles
cpu0_L1I TOTAL     ACCESS:     299541  HIT:     297970  MISS:       1571
cpu0_L1I LOAD      ACCESS:     299541  HIT:     297970  MISS:       1571
cpu0_L1I RFO       ACCESS:          0  HIT:          0  MISS:          0
cpu0_L1I PREFETCH  ACCESS:          0  HIT:          0  MISS:          0
cpu0_L1I WRITEBACK ACCESS:          0  HIT:          0  MISS:          0
cpu0_L1I TRANSLATION ACCESS:          0  HIT:          0  MISS:          0
cpu0_L1I PREFETCH  REQUESTED:          0  ISSUED:          0  USEFUL:          0  USELESS:          0
cpu0_L1I AVERAGE MISS LATENCY: 167.67 cycles
cpu0_STLB TOTAL     ACCESS:     108817  HIT:      69706  MISS:      39111
cpu0_STLB LOAD      ACCESS:     102866  HIT:      64839  MISS:      38027
cpu0_STLB RFO       ACCESS:       5951  HIT:       4867  MISS:       1084
cpu0_STLB PREFETCH  ACCESS:          0  HIT:          0  MISS:          0
cpu0_STLB WRITEBACK ACCESS:          0  HIT:          0  MISS:          0
cpu0_STLB TRANSLATION ACCESS:          0  HIT:          0  MISS:          0
cpu0_STLB PREFETCH  REQUESTED:          0  ISSUED:          0  USEFUL:          0  USELESS:          0
cpu0_STLB AVERAGE MISS LATENCY: 11.7439 cycles
cpu0_L1D TOTAL     ACCESS:   12019695  HIT:   10520506  MISS:    1499189
cpu0_L1D LOAD      ACCESS:   10220090  HIT:    8842002  MISS:    1378088
cpu0_L1D RFO       ACCESS:    1762634  HIT:    1642030  MISS:     120604
cpu0_L1D PREFETCH  ACCESS:          0  HIT:          0  MISS:          0
cpu0_L1D WRITEBACK ACCESS:          0  HIT:          0  MISS:          0
cpu0_L1D TRANSLATION ACCESS:      36971  HIT:      36474  MISS:        497
cpu0_L1D PREFETCH  REQUESTED:          0  ISSUED:          0  USEFUL:          0  USELESS:          0
cpu0_L1D AVERAGE MISS LATENCY: 92.173 cycles
cpu0_L2C TOTAL     ACCESS:    1642877  HIT:     358339  MISS:    1284538
cpu0_L2C LOAD      ACCESS:    1379648  HIT:     204298  MISS:    1175350
cpu0_L2C RFO       ACCESS:     120603  HIT:      11969  MISS:     108634
cpu0_L2C PREFETCH  ACCESS:          0  HIT:          0  MISS:          0
cpu0_L2C WRITEBACK ACCESS:     142129  HIT:     141862  MISS:        267
cpu0_L2C TRANSLATION ACCESS:        497  HIT:        210  MISS:        287
cpu0_L2C PREFETCH  REQUESTED:          0  ISSUED:          0  USEFUL:          0  USELESS:          0
cpu0_L2C AVERAGE MISS LATENCY: 94.8901 cycles
LLC TOTAL     ACCESS:    1413644  HIT:     907534  MISS:     506110
LLC LOAD      ACCESS:    1175342  HIT:     685506  MISS:     489836
LLC RFO       ACCESS:     108634  HIT:     101789  MISS:       6845
LLC PREFETCH  ACCESS:          0  HIT:          0  MISS:          0
LLC WRITEBACK ACCESS:     129381  HIT:     119954  MISS:       9427
LLC TRANSLATION ACCESS:        287  HIT:        285  MISS:          2
LLC PREFETCH  REQUESTED:          0  ISSUED:          0  USEFUL:          0  USELESS:          0
LLC AVERAGE MISS LATENCY: 187.546 cycles
Insertion Distribution: 
	LOAD 5638 0 0 0 0 69226 502187 
	RFO 489 0 0 0 0 6283 5023 
	PREF 0 0 0 0 0 0 0 
	WRITEBACK 0 0 0 0 0 0 9742 
	 0 0 0 0 0 17 5 
Total Prefetch Downgrades: 0

DRAM Statistics
 CHANNEL 0
 RQ ROW_BUFFER_HIT:      52556  ROW_BUFFER_MISS:     444118
 DBUS AVG_CONGESTED_CYCLE:    3.77484
 WQ ROW_BUFFER_HIT:       3769  ROW_BUFFER_MISS:      10287  FULL:          0


CPU 0 Branch Prediction Accuracy: 92.5867% MPKI: 6.65069 Average ROB Occupancy at Mispredict: 176.463
Branch type MPKI
BRANCH_DIRECT_JUMP: 0.00112
BRANCH_INDIRECT: 0
BRANCH_CONDITIONAL: 6.64811
BRANCH_DIRECT_CALL: 0.00071
BRANCH_INDIRECT_CALL: 3e-05
BRANCH_RETURN: 0.00072

