
*** ChampSim Multicore Out-of-Order Simulator ***

Warmup Instructions: 10000000
Simulation Instructions: 100000000
Number of CPUs: 1
Off-chip DRAM Size: 4 GiB Channels: 1 Width: 64-bit Data Rate: 3200 MT/s

VirtualMemory physical capacity: 8588881920 num_ppages: 2096895
VirtualMemory page size: 4096 log2_page_size: 12

CPU 0 runs /datasets/cs240c-wi22-a00-public/data/Assignment2/xalancbmk_768B.trace.xz
CPU 0 Bimodal branch predictor
Basic BTB sets: 1024 ways: 8 indirect buffer size: 4096 RAS size: 64
Initialize SRRIP state
Heartbeat CPU 0 instructions: 10000000 cycles: 3078431 heartbeat IPC: 3.24841 cumulative IPC: 3.24841 (Simulation time: 0 hr 0 min 37 sec) 

Warmup complete CPU 0 instructions: 10000005 cycles: 3078432 (Simulation time: 0 hr 0 min 37 sec) 

Heartbeat CPU 0 instructions: 20000000 cycles: 8040096 heartbeat IPC: 2.01545 cumulative IPC: 2.01545 (Simulation time: 0 hr 1 min 29 sec) 
Heartbeat CPU 0 instructions: 30000001 cycles: 13728579 heartbeat IPC: 1.75794 cumulative IPC: 1.87791 (Simulation time: 0 hr 2 min 17 sec) 
Heartbeat CPU 0 instructions: 40000002 cycles: 19080324 heartbeat IPC: 1.86855 cumulative IPC: 1.87478 (Simulation time: 0 hr 3 min 3 sec) 
Heartbeat CPU 0 instructions: 50000000 cycles: 25053672 heartbeat IPC: 1.6741 cumulative IPC: 1.82023 (Simulation time: 0 hr 3 min 48 sec) 
Heartbeat CPU 0 instructions: 60000004 cycles: 30850160 heartbeat IPC: 1.72518 cumulative IPC: 1.80039 (Simulation time: 0 hr 4 min 34 sec) 
Heartbeat CPU 0 instructions: 70000003 cycles: 36723725 heartbeat IPC: 1.70254 cumulative IPC: 1.78331 (Simulation time: 0 hr 5 min 20 sec) 
Heartbeat CPU 0 instructions: 80000001 cycles: 42639950 heartbeat IPC: 1.69027 cumulative IPC: 1.7694 (Simulation time: 0 hr 6 min 6 sec) 
Heartbeat CPU 0 instructions: 90000004 cycles: 48179185 heartbeat IPC: 1.8053 cumulative IPC: 1.77381 (Simulation time: 0 hr 6 min 53 sec) 
Heartbeat CPU 0 instructions: 100000003 cycles: 53449652 heartbeat IPC: 1.89736 cumulative IPC: 1.78673 (Simulation time: 0 hr 7 min 38 sec) 
Heartbeat CPU 0 instructions: 110000000 cycles: 59143280 heartbeat IPC: 1.75635 cumulative IPC: 1.78365 (Simulation time: 0 hr 8 min 24 sec) 
Finished CPU 0 instructions: 100000004 cycles: 56064851 cumulative IPC: 1.78365 (Simulation time: 0 hr 8 min 24 sec) 

ChampSim completed all CPUs

Region of Interest Statistics

CPU 0 cumulative IPC: 1.78365 instructions: 100000004 cycles: 56064851
cpu0_DTLB TOTAL     ACCESS:   16809827  HIT:   15987518  MISS:     822309
cpu0_DTLB LOAD      ACCESS:   15848017  HIT:   15031055  MISS:     816962
cpu0_DTLB RFO       ACCESS:     961810  HIT:     956463  MISS:       5347
cpu0_DTLB PREFETCH  ACCESS:          0  HIT:          0  MISS:          0
cpu0_DTLB WRITEBACK ACCESS:          0  HIT:          0  MISS:          0
cpu0_DTLB TRANSLATION ACCESS:          0  HIT:          0  MISS:          0
cpu0_DTLB PREFETCH  REQUESTED:          0  ISSUED:          0  USEFUL:          0  USELESS:          0
cpu0_DTLB AVERAGE MISS LATENCY: 11.2123 cycles
cpu0_ITLB TOTAL     ACCESS:    2635732  HIT:    2635732  MISS:          0
cpu0_ITLB LOAD      ACCESS:    2635732  HIT:    2635732  MISS:          0
cpu0_ITLB RFO       ACCESS:          0  HIT:          0  MISS:          0
cpu0_ITLB PREFETCH  ACCESS:          0  HIT:          0  MISS:          0
cpu0_ITLB WRITEBACK ACCESS:          0  HIT:          0  MISS:          0
cpu0_ITLB TRANSLATION ACCESS:          0  HIT:          0  MISS:          0
cpu0_ITLB PREFETCH  REQUESTED:          0  ISSUED:          0  USEFUL:          0  USELESS:          0
cpu0_ITLB AVERAGE MISS LATENCY: -nan cycles
cpu0_L1I TOTAL     ACCESS:     223226  HIT:     223212  MISS:         14
cpu0_L1I LOAD      ACCESS:     223226  HIT:     223212  MISS:         14
cpu0_L1I RFO       ACCESS:          0  HIT:          0  MISS:          0
cpu0_L1I PREFETCH  ACCESS:          0  HIT:          0  MISS:          0
cpu0_L1I WRITEBACK ACCESS:          0  HIT:          0  MISS:          0
cpu0_L1I TRANSLATION ACCESS:          0  HIT:          0  MISS:          0
cpu0_L1I PREFETCH  REQUESTED:          0  ISSUED:          0  USEFUL:          0  USELESS:          0
cpu0_L1I AVERAGE MISS LATENCY: 194.714 cycles
cpu0_STLB TOTAL     ACCESS:     822309  HIT:     782922  MISS:      39387
cpu0_STLB LOAD      ACCESS:     816962  HIT:     778275  MISS:      38687
cpu0_STLB RFO       ACCESS:       5347  HIT:       4647  MISS:        700
cpu0_STLB PREFETCH  ACCESS:          0  HIT:          0  MISS:          0
cpu0_STLB WRITEBACK ACCESS:          0  HIT:          0  MISS:          0
cpu0_STLB TRANSLATION ACCESS:          0  HIT:          0  MISS:          0
cpu0_STLB PREFETCH  REQUESTED:          0  ISSUED:          0  USEFUL:          0  USELESS:          0
cpu0_STLB AVERAGE MISS LATENCY: 45.6432 cycles
cpu0_L1D TOTAL     ACCESS:    8137198  HIT:    3397536  MISS:    4739662
cpu0_L1D LOAD      ACCESS:    7107231  HIT:    2407689  MISS:    4699542
cpu0_L1D RFO       ACCESS:     990959  HIT:     967003  MISS:      23956
cpu0_L1D PREFETCH  ACCESS:          0  HIT:          0  MISS:          0
cpu0_L1D WRITEBACK ACCESS:          0  HIT:          0  MISS:          0
cpu0_L1D TRANSLATION ACCESS:      39008  HIT:      22844  MISS:      16164
cpu0_L1D PREFETCH  REQUESTED:          0  ISSUED:          0  USEFUL:          0  USELESS:          0
cpu0_L1D AVERAGE MISS LATENCY: 12.1747 cycles
cpu0_L2C TOTAL     ACCESS:    4822068  HIT:    4789903  MISS:      32165
cpu0_L2C LOAD      ACCESS:    4699556  HIT:    4670365  MISS:      29191
cpu0_L2C RFO       ACCESS:      23956  HIT:      20989  MISS:       2967
cpu0_L2C PREFETCH  ACCESS:          0  HIT:          0  MISS:          0
cpu0_L2C WRITEBACK ACCESS:      82392  HIT:      82392  MISS:          0
cpu0_L2C TRANSLATION ACCESS:      16164  HIT:      16157  MISS:          7
cpu0_L2C PREFETCH  REQUESTED:          0  ISSUED:          0  USEFUL:          0  USELESS:          0
cpu0_L2C AVERAGE MISS LATENCY: 161.491 cycles
LLC TOTAL     ACCESS:      54335  HIT:      23888  MISS:      30447
LLC LOAD      ACCESS:      29191  HIT:       4657  MISS:      24534
LLC RFO       ACCESS:       2967  HIT:        241  MISS:       2726
LLC PREFETCH  ACCESS:          0  HIT:          0  MISS:          0
LLC WRITEBACK ACCESS:      22170  HIT:      18987  MISS:       3183
LLC TRANSLATION ACCESS:          7  HIT:          3  MISS:          4
LLC PREFETCH  REQUESTED:          0  ISSUED:          0  USEFUL:          0  USELESS:          0
LLC AVERAGE MISS LATENCY: 148.418 cycles
Insertion Distribution: 
	LOAD 9 0 23523 6520 
	RFO 0 0 24431 7663 
	PREF 0 0 0 0 
	WRITEBACK 0 0 0 4692 
	 0 0 35 1 
Total Prefetch Downgrades: 0

DRAM Statistics
 CHANNEL 0
 RQ ROW_BUFFER_HIT:        118  ROW_BUFFER_MISS:      27146
 DBUS AVG_CONGESTED_CYCLE:    3.88076
 WQ ROW_BUFFER_HIT:       5088  ROW_BUFFER_MISS:      15337  FULL:          0


CPU 0 Branch Prediction Accuracy: 99.3839% MPKI: 2.31335 Average ROB Occupancy at Mispredict: 41.5588
Branch type MPKI
BRANCH_DIRECT_JUMP: 4e-05
BRANCH_INDIRECT: 8e-05
BRANCH_CONDITIONAL: 2.24893
BRANCH_DIRECT_CALL: 3e-05
BRANCH_INDIRECT_CALL: 0.0001
BRANCH_RETURN: 0.06417

