
*** ChampSim Multicore Out-of-Order Simulator ***

Warmup Instructions: 10000000
Simulation Instructions: 100000000
Number of CPUs: 1
Off-chip DRAM Size: 4 GiB Channels: 1 Width: 64-bit Data Rate: 3200 MT/s

VirtualMemory physical capacity: 8588881920 num_ppages: 2096895
VirtualMemory page size: 4096 log2_page_size: 12

CPU 0 runs /datasets/cs240c-wi22-a00-public/data/Assignment2/cactusADM_1495B.trace.xz
CPU 0 Bimodal branch predictor
Basic BTB sets: 1024 ways: 8 indirect buffer size: 4096 RAS size: 64
Initialize Hawkeye state
Heartbeat CPU 0 instructions: 10000001 cycles: 3702094 heartbeat IPC: 2.70117 cumulative IPC: 2.70117 (Simulation time: 0 hr 1 min 5 sec) 

Warmup complete CPU 0 instructions: 10000001 cycles: 3702094 (Simulation time: 0 hr 1 min 5 sec) 

Heartbeat CPU 0 instructions: 20000001 cycles: 11458819 heartbeat IPC: 1.2892 cumulative IPC: 1.2892 (Simulation time: 0 hr 2 min 48 sec) 
Heartbeat CPU 0 instructions: 30000004 cycles: 20267507 heartbeat IPC: 1.13524 cumulative IPC: 1.20733 (Simulation time: 0 hr 4 min 36 sec) 
Heartbeat CPU 0 instructions: 40000003 cycles: 29061732 heartbeat IPC: 1.13711 cumulative IPC: 1.18298 (Simulation time: 0 hr 6 min 25 sec) 
Heartbeat CPU 0 instructions: 50000000 cycles: 37714633 heartbeat IPC: 1.15568 cumulative IPC: 1.17604 (Simulation time: 0 hr 8 min 10 sec) 
Heartbeat CPU 0 instructions: 60000000 cycles: 44910545 heartbeat IPC: 1.38968 cumulative IPC: 1.21334 (Simulation time: 0 hr 9 min 48 sec) 
Heartbeat CPU 0 instructions: 70000000 cycles: 52556492 heartbeat IPC: 1.30788 cumulative IPC: 1.22814 (Simulation time: 0 hr 11 min 25 sec) 
Heartbeat CPU 0 instructions: 80000003 cycles: 61024003 heartbeat IPC: 1.18098 cumulative IPC: 1.22117 (Simulation time: 0 hr 13 min 10 sec) 
Heartbeat CPU 0 instructions: 90000002 cycles: 69587949 heartbeat IPC: 1.16769 cumulative IPC: 1.21422 (Simulation time: 0 hr 14 min 54 sec) 
Heartbeat CPU 0 instructions: 100000002 cycles: 78232377 heartbeat IPC: 1.15681 cumulative IPC: 1.20756 (Simulation time: 0 hr 16 min 38 sec) 
Heartbeat CPU 0 instructions: 110000001 cycles: 84320372 heartbeat IPC: 1.64258 cumulative IPC: 1.24041 (Simulation time: 0 hr 18 min 6 sec) 
Finished CPU 0 instructions: 100000000 cycles: 80618278 cumulative IPC: 1.24041 (Simulation time: 0 hr 18 min 6 sec) 

ChampSim completed all CPUs

Region of Interest Statistics

CPU 0 cumulative IPC: 1.24041 instructions: 100000000 cycles: 80618278
cpu0_DTLB TOTAL     ACCESS:   21498407  HIT:   19726596  MISS:    1771811
cpu0_DTLB LOAD      ACCESS:   17692000  HIT:   16483193  MISS:    1208807
cpu0_DTLB RFO       ACCESS:    3806407  HIT:    3243403  MISS:     563004
cpu0_DTLB PREFETCH  ACCESS:          0  HIT:          0  MISS:          0
cpu0_DTLB WRITEBACK ACCESS:          0  HIT:          0  MISS:          0
cpu0_DTLB TRANSLATION ACCESS:          0  HIT:          0  MISS:          0
cpu0_DTLB PREFETCH  REQUESTED:          0  ISSUED:          0  USEFUL:          0  USELESS:          0
cpu0_DTLB AVERAGE MISS LATENCY: 16.1511 cycles
cpu0_ITLB TOTAL     ACCESS:    1612820  HIT:    1612820  MISS:          0
cpu0_ITLB LOAD      ACCESS:    1612820  HIT:    1612820  MISS:          0
cpu0_ITLB RFO       ACCESS:          0  HIT:          0  MISS:          0
cpu0_ITLB PREFETCH  ACCESS:          0  HIT:          0  MISS:          0
cpu0_ITLB WRITEBACK ACCESS:          0  HIT:          0  MISS:          0
cpu0_ITLB TRANSLATION ACCESS:          0  HIT:          0  MISS:          0
cpu0_ITLB PREFETCH  REQUESTED:          0  ISSUED:          0  USEFUL:          0  USELESS:          0
cpu0_ITLB AVERAGE MISS LATENCY: -nan cycles
cpu0_L1I TOTAL     ACCESS:    8433286  HIT:    8433286  MISS:          0
cpu0_L1I LOAD      ACCESS:    8433286  HIT:    8433286  MISS:          0
cpu0_L1I RFO       ACCESS:          0  HIT:          0  MISS:          0
cpu0_L1I PREFETCH  ACCESS:          0  HIT:          0  MISS:          0
cpu0_L1I WRITEBACK ACCESS:          0  HIT:          0  MISS:          0
cpu0_L1I TRANSLATION ACCESS:          0  HIT:          0  MISS:          0
cpu0_L1I PREFETCH  REQUESTED:          0  ISSUED:          0  USEFUL:          0  USELESS:          0
cpu0_L1I AVERAGE MISS LATENCY: -nan cycles
cpu0_STLB TOTAL     ACCESS:    1771811  HIT:     905531  MISS:     866280
cpu0_STLB LOAD      ACCESS:    1208807  HIT:     648361  MISS:     560446
cpu0_STLB RFO       ACCESS:     563004  HIT:     257170  MISS:     305834
cpu0_STLB PREFETCH  ACCESS:          0  HIT:          0  MISS:          0
cpu0_STLB WRITEBACK ACCESS:          0  HIT:          0  MISS:          0
cpu0_STLB TRANSLATION ACCESS:          0  HIT:          0  MISS:          0
cpu0_STLB PREFETCH  REQUESTED:          0  ISSUED:          0  USEFUL:          0  USELESS:          0
cpu0_STLB AVERAGE MISS LATENCY: 14.5035 cycles
cpu0_L1D TOTAL     ACCESS:   37520860  HIT:   36232611  MISS:    1288249
cpu0_L1D LOAD      ACCESS:   25707928  HIT:   24671847  MISS:    1036081
cpu0_L1D RFO       ACCESS:   10947349  HIT:   10702117  MISS:     245232
cpu0_L1D PREFETCH  ACCESS:          0  HIT:          0  MISS:          0
cpu0_L1D WRITEBACK ACCESS:          0  HIT:          0  MISS:          0
cpu0_L1D TRANSLATION ACCESS:     865583  HIT:     858647  MISS:       6936
cpu0_L1D PREFETCH  REQUESTED:          0  ISSUED:          0  USEFUL:          0  USELESS:          0
cpu0_L1D AVERAGE MISS LATENCY: 262.31 cycles
cpu0_L2C TOTAL     ACCESS:    1537031  HIT:     676865  MISS:     860166
cpu0_L2C LOAD      ACCESS:    1036081  HIT:     421655  MISS:     614426
cpu0_L2C RFO       ACCESS:     245232  HIT:          0  MISS:     245232
cpu0_L2C PREFETCH  ACCESS:          0  HIT:          0  MISS:          0
cpu0_L2C WRITEBACK ACCESS:     248782  HIT:     248594  MISS:        188
cpu0_L2C TRANSLATION ACCESS:       6936  HIT:       6616  MISS:        320
cpu0_L2C PREFETCH  REQUESTED:          0  ISSUED:          0  USEFUL:          0  USELESS:          0
cpu0_L2C AVERAGE MISS LATENCY: 376.358 cycles
LLC TOTAL     ACCESS:    1105587  HIT:     328634  MISS:     776953
LLC LOAD      ACCESS:     614426  HIT:     156371  MISS:     458055
LLC RFO       ACCESS:     245232  HIT:      77552  MISS:     167680
LLC PREFETCH  ACCESS:          0  HIT:          0  MISS:          0
LLC WRITEBACK ACCESS:     245609  HIT:      94688  MISS:     150921
LLC TRANSLATION ACCESS:        320  HIT:         23  MISS:        297
LLC PREFETCH  REQUESTED:          0  ISSUED:          0  USEFUL:          0  USELESS:          0
LLC AVERAGE MISS LATENCY: 393.421 cycles
OPTgen accesses: 15004
OPTgen hits: 4799
OPTgen hit rate: 31.9848



DRAM Statistics
 CHANNEL 0
 RQ ROW_BUFFER_HIT:       5626  ROW_BUFFER_MISS:     620392
 DBUS AVG_CONGESTED_CYCLE:    3.97422
 WQ ROW_BUFFER_HIT:      17349  ROW_BUFFER_MISS:     200654  FULL:          0


CPU 0 Branch Prediction Accuracy: 97.8411% MPKI: 0.04284 Average ROB Occupancy at Mispredict: 285.519
Branch type MPKI
BRANCH_DIRECT_JUMP: 0
BRANCH_INDIRECT: 0
BRANCH_CONDITIONAL: 0.04284
BRANCH_DIRECT_CALL: 0
BRANCH_INDIRECT_CALL: 0
BRANCH_RETURN: 0

