
*** ChampSim Multicore Out-of-Order Simulator ***

Warmup Instructions: 10000000
Simulation Instructions: 100000000
Number of CPUs: 1
Off-chip DRAM Size: 4 GiB Channels: 1 Width: 64-bit Data Rate: 3200 MT/s

VirtualMemory physical capacity: 8588881920 num_ppages: 2096895
VirtualMemory page size: 4096 log2_page_size: 12

CPU 0 runs /datasets/cs240c-wi22-a00-public/data/Assignment2/cactusADM_1039B.trace.xz
CPU 0 Bimodal branch predictor
Basic BTB sets: 1024 ways: 8 indirect buffer size: 4096 RAS size: 64
Initialize Hawkeye state
Heartbeat CPU 0 instructions: 10000004 cycles: 3647107 heartbeat IPC: 2.7419 cumulative IPC: 2.7419 (Simulation time: 0 hr 1 min 0 sec) 

Warmup complete CPU 0 instructions: 10000004 cycles: 3647107 (Simulation time: 0 hr 1 min 0 sec) 

Heartbeat CPU 0 instructions: 20000004 cycles: 13759724 heartbeat IPC: 0.988864 cumulative IPC: 0.988864 (Simulation time: 0 hr 2 min 54 sec) 
Heartbeat CPU 0 instructions: 30000000 cycles: 22985042 heartbeat IPC: 1.08397 cumulative IPC: 1.03424 (Simulation time: 0 hr 4 min 42 sec) 
Heartbeat CPU 0 instructions: 40000000 cycles: 31632563 heartbeat IPC: 1.1564 cumulative IPC: 1.07199 (Simulation time: 0 hr 6 min 26 sec) 
Heartbeat CPU 0 instructions: 50000004 cycles: 40304666 heartbeat IPC: 1.15312 cumulative IPC: 1.09118 (Simulation time: 0 hr 8 min 13 sec) 
Heartbeat CPU 0 instructions: 60000002 cycles: 46547489 heartbeat IPC: 1.60184 cumulative IPC: 1.16549 (Simulation time: 0 hr 9 min 45 sec) 
Heartbeat CPU 0 instructions: 70000003 cycles: 55077113 heartbeat IPC: 1.17238 cumulative IPC: 1.16663 (Simulation time: 0 hr 11 min 30 sec) 
Heartbeat CPU 0 instructions: 80000004 cycles: 63381003 heartbeat IPC: 1.20425 cumulative IPC: 1.17186 (Simulation time: 0 hr 13 min 12 sec) 
Heartbeat CPU 0 instructions: 90000004 cycles: 72148740 heartbeat IPC: 1.14055 cumulative IPC: 1.16786 (Simulation time: 0 hr 14 min 57 sec) 
Heartbeat CPU 0 instructions: 100000000 cycles: 78201113 heartbeat IPC: 1.65224 cumulative IPC: 1.20718 (Simulation time: 0 hr 16 min 27 sec) 
Heartbeat CPU 0 instructions: 110000001 cycles: 86637941 heartbeat IPC: 1.18528 cumulative IPC: 1.20495 (Simulation time: 0 hr 18 min 7 sec) 
Finished CPU 0 instructions: 100000002 cycles: 82990835 cumulative IPC: 1.20495 (Simulation time: 0 hr 18 min 7 sec) 

ChampSim completed all CPUs

Region of Interest Statistics

CPU 0 cumulative IPC: 1.20495 instructions: 100000002 cycles: 82990835
cpu0_DTLB TOTAL     ACCESS:   22835957  HIT:   20786345  MISS:    2049612
cpu0_DTLB LOAD      ACCESS:   18920083  HIT:   17486774  MISS:    1433309
cpu0_DTLB RFO       ACCESS:    3915874  HIT:    3299571  MISS:     616303
cpu0_DTLB PREFETCH  ACCESS:          0  HIT:          0  MISS:          0
cpu0_DTLB WRITEBACK ACCESS:          0  HIT:          0  MISS:          0
cpu0_DTLB TRANSLATION ACCESS:          0  HIT:          0  MISS:          0
cpu0_DTLB PREFETCH  REQUESTED:          0  ISSUED:          0  USEFUL:          0  USELESS:          0
cpu0_DTLB AVERAGE MISS LATENCY: 15.9501 cycles
cpu0_ITLB TOTAL     ACCESS:    1451339  HIT:    1451339  MISS:          0
cpu0_ITLB LOAD      ACCESS:    1451339  HIT:    1451339  MISS:          0
cpu0_ITLB RFO       ACCESS:          0  HIT:          0  MISS:          0
cpu0_ITLB PREFETCH  ACCESS:          0  HIT:          0  MISS:          0
cpu0_ITLB WRITEBACK ACCESS:          0  HIT:          0  MISS:          0
cpu0_ITLB TRANSLATION ACCESS:          0  HIT:          0  MISS:          0
cpu0_ITLB PREFETCH  REQUESTED:          0  ISSUED:          0  USEFUL:          0  USELESS:          0
cpu0_ITLB AVERAGE MISS LATENCY: -nan cycles
cpu0_L1I TOTAL     ACCESS:    8112864  HIT:    8112861  MISS:          3
cpu0_L1I LOAD      ACCESS:    8112864  HIT:    8112861  MISS:          3
cpu0_L1I RFO       ACCESS:          0  HIT:          0  MISS:          0
cpu0_L1I PREFETCH  ACCESS:          0  HIT:          0  MISS:          0
cpu0_L1I WRITEBACK ACCESS:          0  HIT:          0  MISS:          0
cpu0_L1I TRANSLATION ACCESS:          0  HIT:          0  MISS:          0
cpu0_L1I PREFETCH  REQUESTED:          0  ISSUED:          0  USEFUL:          0  USELESS:          0
cpu0_L1I AVERAGE MISS LATENCY: 395 cycles
cpu0_STLB TOTAL     ACCESS:    2049612  HIT:    1128383  MISS:     921229
cpu0_STLB LOAD      ACCESS:    1433309  HIT:     834738  MISS:     598571
cpu0_STLB RFO       ACCESS:     616303  HIT:     293645  MISS:     322658
cpu0_STLB PREFETCH  ACCESS:          0  HIT:          0  MISS:          0
cpu0_STLB WRITEBACK ACCESS:          0  HIT:          0  MISS:          0
cpu0_STLB TRANSLATION ACCESS:          0  HIT:          0  MISS:          0
cpu0_STLB PREFETCH  REQUESTED:          0  ISSUED:          0  USEFUL:          0  USELESS:          0
cpu0_STLB AVERAGE MISS LATENCY: 15.3055 cycles
cpu0_L1D TOTAL     ACCESS:   37613805  HIT:   36290056  MISS:    1323749
cpu0_L1D LOAD      ACCESS:   25711986  HIT:   24659564  MISS:    1052422
cpu0_L1D RFO       ACCESS:   10981467  HIT:   10716096  MISS:     265371
cpu0_L1D PREFETCH  ACCESS:          0  HIT:          0  MISS:          0
cpu0_L1D WRITEBACK ACCESS:          0  HIT:          0  MISS:          0
cpu0_L1D TRANSLATION ACCESS:     920352  HIT:     914396  MISS:       5956
cpu0_L1D PREFETCH  REQUESTED:          0  ISSUED:          0  USEFUL:          0  USELESS:          0
cpu0_L1D AVERAGE MISS LATENCY: 283.965 cycles
cpu0_L2C TOTAL     ACCESS:    1593027  HIT:     694201  MISS:     898826
cpu0_L2C LOAD      ACCESS:    1052424  HIT:     419501  MISS:     632923
cpu0_L2C RFO       ACCESS:     265371  HIT:          0  MISS:     265371
cpu0_L2C PREFETCH  ACCESS:          0  HIT:          0  MISS:          0
cpu0_L2C WRITEBACK ACCESS:     269276  HIT:     269060  MISS:        216
cpu0_L2C TRANSLATION ACCESS:       5956  HIT:       5640  MISS:        316
cpu0_L2C PREFETCH  REQUESTED:          0  ISSUED:          0  USEFUL:          0  USELESS:          0
cpu0_L2C AVERAGE MISS LATENCY: 401.99 cycles
LLC TOTAL     ACCESS:    1165777  HIT:     343005  MISS:     822772
LLC LOAD      ACCESS:     632923  HIT:     153333  MISS:     479590
LLC RFO       ACCESS:     265371  HIT:      81937  MISS:     183434
LLC PREFETCH  ACCESS:          0  HIT:          0  MISS:          0
LLC WRITEBACK ACCESS:     267167  HIT:     107702  MISS:     159465
LLC TRANSLATION ACCESS:        316  HIT:         33  MISS:        283
LLC PREFETCH  REQUESTED:          0  ISSUED:          0  USEFUL:          0  USELESS:          0
LLC AVERAGE MISS LATENCY: 416.211 cycles
OPTgen accesses: 15020
OPTgen hits: 4769
OPTgen hit rate: 31.751



DRAM Statistics
 CHANNEL 0
 RQ ROW_BUFFER_HIT:       6450  ROW_BUFFER_MISS:     656848
 DBUS AVG_CONGESTED_CYCLE:    3.97571
 WQ ROW_BUFFER_HIT:      19906  ROW_BUFFER_MISS:     218395  FULL:         83


CPU 0 Branch Prediction Accuracy: 97.7479% MPKI: 0.04701 Average ROB Occupancy at Mispredict: 283.882
Branch type MPKI
BRANCH_DIRECT_JUMP: 0
BRANCH_INDIRECT: 0
BRANCH_CONDITIONAL: 0.04701
BRANCH_DIRECT_CALL: 0
BRANCH_INDIRECT_CALL: 0
BRANCH_RETURN: 0

