
*** ChampSim Multicore Out-of-Order Simulator ***

Warmup Instructions: 10000000
Simulation Instructions: 100000000
Number of CPUs: 1
Off-chip DRAM Size: 4 GiB Channels: 1 Width: 64-bit Data Rate: 3200 MT/s

VirtualMemory physical capacity: 8588881920 num_ppages: 2096895
VirtualMemory page size: 4096 log2_page_size: 12

CPU 0 runs /datasets/cs240c-wi22-a00-public/data/Assignment2/GemsFDTD_109B.trace.xz
CPU 0 Bimodal branch predictor
Basic BTB sets: 1024 ways: 8 indirect buffer size: 4096 RAS size: 64
Initialize Hawkeye state
Heartbeat CPU 0 instructions: 10000004 cycles: 4294006 heartbeat IPC: 2.32883 cumulative IPC: 2.32883 (Simulation time: 0 hr 1 min 8 sec) 

Warmup complete CPU 0 instructions: 10000004 cycles: 4294006 (Simulation time: 0 hr 1 min 8 sec) 

Heartbeat CPU 0 instructions: 20000000 cycles: 35055331 heartbeat IPC: 0.325083 cumulative IPC: 0.325083 (Simulation time: 0 hr 4 min 57 sec) 
Heartbeat CPU 0 instructions: 30000004 cycles: 56570923 heartbeat IPC: 0.464779 cumulative IPC: 0.382578 (Simulation time: 0 hr 7 min 17 sec) 
Heartbeat CPU 0 instructions: 40000004 cycles: 62829369 heartbeat IPC: 1.59784 cumulative IPC: 0.512511 (Simulation time: 0 hr 8 min 15 sec) 
Heartbeat CPU 0 instructions: 50000002 cycles: 83859548 heartbeat IPC: 0.475507 cumulative IPC: 0.50273 (Simulation time: 0 hr 10 min 36 sec) 
Heartbeat CPU 0 instructions: 60000002 cycles: 124270712 heartbeat IPC: 0.247456 cumulative IPC: 0.416748 (Simulation time: 0 hr 15 min 18 sec) 
Heartbeat CPU 0 instructions: 70000000 cycles: 164052395 heartbeat IPC: 0.251372 cumulative IPC: 0.375567 (Simulation time: 0 hr 19 min 54 sec) 
Heartbeat CPU 0 instructions: 80000004 cycles: 203695927 heartbeat IPC: 0.252248 cumulative IPC: 0.35105 (Simulation time: 0 hr 24 min 31 sec) 
Heartbeat CPU 0 instructions: 90000000 cycles: 243333000 heartbeat IPC: 0.252289 cumulative IPC: 0.334673 (Simulation time: 0 hr 29 min 5 sec) 
Heartbeat CPU 0 instructions: 100000003 cycles: 283038237 heartbeat IPC: 0.251856 cumulative IPC: 0.322877 (Simulation time: 0 hr 33 min 38 sec) 
Heartbeat CPU 0 instructions: 110000004 cycles: 322810816 heartbeat IPC: 0.25143 cumulative IPC: 0.313955 (Simulation time: 0 hr 38 min 12 sec) 
Finished CPU 0 instructions: 100000000 cycles: 318516810 cumulative IPC: 0.313955 (Simulation time: 0 hr 38 min 12 sec) 

ChampSim completed all CPUs

Region of Interest Statistics

CPU 0 cumulative IPC: 0.313955 instructions: 100000000 cycles: 318516810
cpu0_DTLB TOTAL     ACCESS:   26450032  HIT:   26250605  MISS:     199427
cpu0_DTLB LOAD      ACCESS:   21018567  HIT:   20821141  MISS:     197426
cpu0_DTLB RFO       ACCESS:    5431465  HIT:    5429464  MISS:       2001
cpu0_DTLB PREFETCH  ACCESS:          0  HIT:          0  MISS:          0
cpu0_DTLB WRITEBACK ACCESS:          0  HIT:          0  MISS:          0
cpu0_DTLB TRANSLATION ACCESS:          0  HIT:          0  MISS:          0
cpu0_DTLB PREFETCH  REQUESTED:          0  ISSUED:          0  USEFUL:          0  USELESS:          0
cpu0_DTLB AVERAGE MISS LATENCY: 426.664 cycles
cpu0_ITLB TOTAL     ACCESS:    2037215  HIT:    2037197  MISS:         18
cpu0_ITLB LOAD      ACCESS:    2037215  HIT:    2037197  MISS:         18
cpu0_ITLB RFO       ACCESS:          0  HIT:          0  MISS:          0
cpu0_ITLB PREFETCH  ACCESS:          0  HIT:          0  MISS:          0
cpu0_ITLB WRITEBACK ACCESS:          0  HIT:          0  MISS:          0
cpu0_ITLB TRANSLATION ACCESS:          0  HIT:          0  MISS:          0
cpu0_ITLB PREFETCH  REQUESTED:          0  ISSUED:          0  USEFUL:          0  USELESS:          0
cpu0_ITLB AVERAGE MISS LATENCY: 255.111 cycles
cpu0_L1I TOTAL     ACCESS:    1722964  HIT:    1722534  MISS:        430
cpu0_L1I LOAD      ACCESS:    1722964  HIT:    1722534  MISS:        430
cpu0_L1I RFO       ACCESS:          0  HIT:          0  MISS:          0
cpu0_L1I PREFETCH  ACCESS:          0  HIT:          0  MISS:          0
cpu0_L1I WRITEBACK ACCESS:          0  HIT:          0  MISS:          0
cpu0_L1I TRANSLATION ACCESS:          0  HIT:          0  MISS:          0
cpu0_L1I PREFETCH  REQUESTED:          0  ISSUED:          0  USEFUL:          0  USELESS:          0
cpu0_L1I AVERAGE MISS LATENCY: 364.891 cycles
cpu0_STLB TOTAL     ACCESS:     199445  HIT:      33984  MISS:     165461
cpu0_STLB LOAD      ACCESS:     197444  HIT:      32677  MISS:     164767
cpu0_STLB RFO       ACCESS:       2001  HIT:       1307  MISS:        694
cpu0_STLB PREFETCH  ACCESS:          0  HIT:          0  MISS:          0
cpu0_STLB WRITEBACK ACCESS:          0  HIT:          0  MISS:          0
cpu0_STLB TRANSLATION ACCESS:          0  HIT:          0  MISS:          0
cpu0_STLB PREFETCH  REQUESTED:          0  ISSUED:          0  USEFUL:          0  USELESS:          0
cpu0_STLB AVERAGE MISS LATENCY: 503.311 cycles
cpu0_L1D TOTAL     ACCESS:   22883419  HIT:   19653080  MISS:    3230339
cpu0_L1D LOAD      ACCESS:   13784340  HIT:   10684295  MISS:    3100045
cpu0_L1D RFO       ACCESS:    9009075  HIT:    8881463  MISS:     127612
cpu0_L1D PREFETCH  ACCESS:          0  HIT:          0  MISS:          0
cpu0_L1D WRITEBACK ACCESS:          0  HIT:          0  MISS:          0
cpu0_L1D TRANSLATION ACCESS:      90004  HIT:      87322  MISS:       2682
cpu0_L1D PREFETCH  REQUESTED:          0  ISSUED:          0  USEFUL:          0  USELESS:          0
cpu0_L1D AVERAGE MISS LATENCY: 720.019 cycles
cpu0_L2C TOTAL     ACCESS:    4595601  HIT:    1423767  MISS:    3171834
cpu0_L2C LOAD      ACCESS:    3100475  HIT:      41442  MISS:    3059033
cpu0_L2C RFO       ACCESS:     127612  HIT:      15107  MISS:     112505
cpu0_L2C PREFETCH  ACCESS:          0  HIT:          0  MISS:          0
cpu0_L2C WRITEBACK ACCESS:    1364832  HIT:    1364733  MISS:         99
cpu0_L2C TRANSLATION ACCESS:       2682  HIT:       2485  MISS:        197
cpu0_L2C PREFETCH  REQUESTED:          0  ISSUED:          0  USEFUL:          0  USELESS:          0
cpu0_L2C AVERAGE MISS LATENCY: 722.13 cycles
LLC TOTAL     ACCESS:    4523048  HIT:    1091737  MISS:    3431311
LLC LOAD      ACCESS:    3059029  HIT:     709329  MISS:    2349700
LLC RFO       ACCESS:     112505  HIT:      89509  MISS:      22996
LLC PREFETCH  ACCESS:          0  HIT:          0  MISS:          0
LLC WRITEBACK ACCESS:    1351317  HIT:     292803  MISS:    1058514
LLC TRANSLATION ACCESS:        197  HIT:         96  MISS:        101
LLC PREFETCH  REQUESTED:          0  ISSUED:          0  USEFUL:          0  USELESS:          0
LLC AVERAGE MISS LATENCY: 648.106 cycles
OPTgen accesses: 53488
OPTgen hits: 13958
OPTgen hit rate: 26.0956



DRAM Statistics
 CHANNEL 0
 RQ ROW_BUFFER_HIT:      44540  ROW_BUFFER_MISS:    2328224
 DBUS AVG_CONGESTED_CYCLE:    3.99654
 WQ ROW_BUFFER_HIT:      20877  ROW_BUFFER_MISS:    1245978  FULL:      43147


CPU 0 Branch Prediction Accuracy: 98.929% MPKI: 0.55515 Average ROB Occupancy at Mispredict: 268.052
Branch type MPKI
BRANCH_DIRECT_JUMP: 0.00045
BRANCH_INDIRECT: 1e-05
BRANCH_CONDITIONAL: 0.5534
BRANCH_DIRECT_CALL: 0.00065
BRANCH_INDIRECT_CALL: 0
BRANCH_RETURN: 0.00064

