
*** ChampSim Multicore Out-of-Order Simulator ***

Warmup Instructions: 10000000
Simulation Instructions: 100000000
Number of CPUs: 1
Off-chip DRAM Size: 4 GiB Channels: 1 Width: 64-bit Data Rate: 3200 MT/s

VirtualMemory physical capacity: 8588881920 num_ppages: 2096895
VirtualMemory page size: 4096 log2_page_size: 12

CPU 0 runs /datasets/cs240c-wi22-a00-public/data/Assignment2/hmmer_7B.trace.xz
CPU 0 Bimodal branch predictor
Basic BTB sets: 1024 ways: 8 indirect buffer size: 4096 RAS size: 64
Initialize Hawkeye state
Heartbeat CPU 0 instructions: 10000004 cycles: 3986065 heartbeat IPC: 2.50874 cumulative IPC: 2.50874 (Simulation time: 0 hr 0 min 58 sec) 

Warmup complete CPU 0 instructions: 10000004 cycles: 3986065 (Simulation time: 0 hr 0 min 58 sec) 

Heartbeat CPU 0 instructions: 20000004 cycles: 9286469 heartbeat IPC: 1.88665 cumulative IPC: 1.88665 (Simulation time: 0 hr 2 min 24 sec) 
Heartbeat CPU 0 instructions: 30000001 cycles: 14188785 heartbeat IPC: 2.03985 cumulative IPC: 1.96026 (Simulation time: 0 hr 3 min 46 sec) 
Heartbeat CPU 0 instructions: 40000001 cycles: 18709234 heartbeat IPC: 2.21217 cumulative IPC: 2.0376 (Simulation time: 0 hr 5 min 7 sec) 
Heartbeat CPU 0 instructions: 50000000 cycles: 24053233 heartbeat IPC: 1.87126 cumulative IPC: 1.99331 (Simulation time: 0 hr 6 min 33 sec) 
Heartbeat CPU 0 instructions: 60000000 cycles: 28389869 heartbeat IPC: 2.30593 cumulative IPC: 2.04886 (Simulation time: 0 hr 7 min 53 sec) 
Heartbeat CPU 0 instructions: 70000003 cycles: 32713167 heartbeat IPC: 2.31305 cumulative IPC: 2.08862 (Simulation time: 0 hr 9 min 11 sec) 
Heartbeat CPU 0 instructions: 80000001 cycles: 37022882 heartbeat IPC: 2.32034 cumulative IPC: 2.11885 (Simulation time: 0 hr 10 min 30 sec) 
Heartbeat CPU 0 instructions: 90000004 cycles: 41342489 heartbeat IPC: 2.31503 cumulative IPC: 2.14153 (Simulation time: 0 hr 11 min 49 sec) 
Heartbeat CPU 0 instructions: 100000002 cycles: 45661552 heartbeat IPC: 2.31532 cumulative IPC: 2.15954 (Simulation time: 0 hr 13 min 8 sec) 
Heartbeat CPU 0 instructions: 110000001 cycles: 49990330 heartbeat IPC: 2.31012 cumulative IPC: 2.17371 (Simulation time: 0 hr 14 min 27 sec) 
Finished CPU 0 instructions: 100000002 cycles: 46004266 cumulative IPC: 2.17371 (Simulation time: 0 hr 14 min 27 sec) 

ChampSim completed all CPUs

Region of Interest Statistics

CPU 0 cumulative IPC: 2.17371 instructions: 100000002 cycles: 46004266
cpu0_DTLB TOTAL     ACCESS:   40544179  HIT:   40530010  MISS:      14169
cpu0_DTLB LOAD      ACCESS:   32388799  HIT:   32381067  MISS:       7732
cpu0_DTLB RFO       ACCESS:    8155380  HIT:    8148943  MISS:       6437
cpu0_DTLB PREFETCH  ACCESS:          0  HIT:          0  MISS:          0
cpu0_DTLB WRITEBACK ACCESS:          0  HIT:          0  MISS:          0
cpu0_DTLB TRANSLATION ACCESS:          0  HIT:          0  MISS:          0
cpu0_DTLB PREFETCH  REQUESTED:          0  ISSUED:          0  USEFUL:          0  USELESS:          0
cpu0_DTLB AVERAGE MISS LATENCY: 14.892 cycles
cpu0_ITLB TOTAL     ACCESS:     798234  HIT:     798162  MISS:         72
cpu0_ITLB LOAD      ACCESS:     798234  HIT:     798162  MISS:         72
cpu0_ITLB RFO       ACCESS:          0  HIT:          0  MISS:          0
cpu0_ITLB PREFETCH  ACCESS:          0  HIT:          0  MISS:          0
cpu0_ITLB WRITEBACK ACCESS:          0  HIT:          0  MISS:          0
cpu0_ITLB TRANSLATION ACCESS:          0  HIT:          0  MISS:          0
cpu0_ITLB PREFETCH  REQUESTED:          0  ISSUED:          0  USEFUL:          0  USELESS:          0
cpu0_ITLB AVERAGE MISS LATENCY: 23.2639 cycles
cpu0_L1I TOTAL     ACCESS:      62176  HIT:      62071  MISS:        105
cpu0_L1I LOAD      ACCESS:      62176  HIT:      62071  MISS:        105
cpu0_L1I RFO       ACCESS:          0  HIT:          0  MISS:          0
cpu0_L1I PREFETCH  ACCESS:          0  HIT:          0  MISS:          0
cpu0_L1I WRITEBACK ACCESS:          0  HIT:          0  MISS:          0
cpu0_L1I TRANSLATION ACCESS:          0  HIT:          0  MISS:          0
cpu0_L1I PREFETCH  REQUESTED:          0  ISSUED:          0  USEFUL:          0  USELESS:          0
cpu0_L1I AVERAGE MISS LATENCY: 112.781 cycles
cpu0_STLB TOTAL     ACCESS:      14241  HIT:      13786  MISS:        455
cpu0_STLB LOAD      ACCESS:       7804  HIT:       7796  MISS:          8
cpu0_STLB RFO       ACCESS:       6437  HIT:       5990  MISS:        447
cpu0_STLB PREFETCH  ACCESS:          0  HIT:          0  MISS:          0
cpu0_STLB WRITEBACK ACCESS:          0  HIT:          0  MISS:          0
cpu0_STLB TRANSLATION ACCESS:          0  HIT:          0  MISS:          0
cpu0_STLB PREFETCH  REQUESTED:          0  ISSUED:          0  USEFUL:          0  USELESS:          0
cpu0_STLB AVERAGE MISS LATENCY: 185.534 cycles
cpu0_L1D TOTAL     ACCESS:   33475538  HIT:   33005457  MISS:     470081
cpu0_L1D LOAD      ACCESS:   28673571  HIT:   28512221  MISS:     161350
cpu0_L1D RFO       ACCESS:    4801513  HIT:    4492805  MISS:     308708
cpu0_L1D PREFETCH  ACCESS:          0  HIT:          0  MISS:          0
cpu0_L1D WRITEBACK ACCESS:          0  HIT:          0  MISS:          0
cpu0_L1D TRANSLATION ACCESS:        454  HIT:        431  MISS:         23
cpu0_L1D PREFETCH  REQUESTED:          0  ISSUED:          0  USEFUL:          0  USELESS:          0
cpu0_L1D AVERAGE MISS LATENCY: 252.471 cycles
cpu0_L2C TOTAL     ACCESS:     777194  HIT:     472271  MISS:     304923
cpu0_L2C LOAD      ACCESS:     161455  HIT:     149221  MISS:      12234
cpu0_L2C RFO       ACCESS:     308708  HIT:      16074  MISS:     292634
cpu0_L2C PREFETCH  ACCESS:          0  HIT:          0  MISS:          0
cpu0_L2C WRITEBACK ACCESS:     307008  HIT:     306961  MISS:         47
cpu0_L2C TRANSLATION ACCESS:         23  HIT:         15  MISS:          8
cpu0_L2C PREFETCH  REQUESTED:          0  ISSUED:          0  USEFUL:          0  USELESS:          0
cpu0_L2C AVERAGE MISS LATENCY: 372.282 cycles
LLC TOTAL     ACCESS:     596402  HIT:     451175  MISS:     145227
LLC LOAD      ACCESS:      12233  HIT:      10594  MISS:       1639
LLC RFO       ACCESS:     292633  HIT:     209805  MISS:      82828
LLC PREFETCH  ACCESS:          0  HIT:          0  MISS:          0
LLC WRITEBACK ACCESS:     291528  HIT:     230772  MISS:      60756
LLC TRANSLATION ACCESS:          8  HIT:          4  MISS:          4
LLC PREFETCH  REQUESTED:          0  ISSUED:          0  USEFUL:          0  USELESS:          0
LLC AVERAGE MISS LATENCY: 737.561 cycles
OPTgen accesses: 5335
OPTgen hits: 3762
OPTgen hit rate: 70.5155



DRAM Statistics
 CHANNEL 0
 RQ ROW_BUFFER_HIT:        951  ROW_BUFFER_MISS:      83516
 DBUS AVG_CONGESTED_CYCLE:    3.99439
 WQ ROW_BUFFER_HIT:       4131  ROW_BUFFER_MISS:      78700  FULL:       7278


CPU 0 Branch Prediction Accuracy: 98.9368% MPKI: 0.40856 Average ROB Occupancy at Mispredict: 252.368
Branch type MPKI
BRANCH_DIRECT_JUMP: 0.00016
BRANCH_INDIRECT: 0.00157
BRANCH_CONDITIONAL: 0.40659
BRANCH_DIRECT_CALL: 9e-05
BRANCH_INDIRECT_CALL: 3e-05
BRANCH_RETURN: 0.00012

