
*** ChampSim Multicore Out-of-Order Simulator ***

Warmup Instructions: 10000000
Simulation Instructions: 100000000
Number of CPUs: 1
Off-chip DRAM Size: 4 GiB Channels: 1 Width: 64-bit Data Rate: 3200 MT/s

VirtualMemory physical capacity: 8588881920 num_ppages: 2096895
VirtualMemory page size: 4096 log2_page_size: 12

CPU 0 runs /datasets/cs240c-wi22-a00-public/data/Assignment2/leslie3d_1186B.trace.xz
CPU 0 Bimodal branch predictor
Basic BTB sets: 1024 ways: 8 indirect buffer size: 4096 RAS size: 64
Initialize Hawkeye state
Heartbeat CPU 0 instructions: 10000000 cycles: 4308741 heartbeat IPC: 2.32086 cumulative IPC: 2.32086 (Simulation time: 0 hr 1 min 12 sec) 

Warmup complete CPU 0 instructions: 10000002 cycles: 4308742 (Simulation time: 0 hr 1 min 12 sec) 

Heartbeat CPU 0 instructions: 20000000 cycles: 18144430 heartbeat IPC: 0.722768 cumulative IPC: 0.722768 (Simulation time: 0 hr 3 min 20 sec) 
Heartbeat CPU 0 instructions: 30000000 cycles: 31437755 heartbeat IPC: 0.752257 cumulative IPC: 0.737218 (Simulation time: 0 hr 5 min 23 sec) 
Heartbeat CPU 0 instructions: 40000004 cycles: 45197287 heartbeat IPC: 0.726769 cumulative IPC: 0.733702 (Simulation time: 0 hr 7 min 29 sec) 
Heartbeat CPU 0 instructions: 50000001 cycles: 61370225 heartbeat IPC: 0.618317 cumulative IPC: 0.700998 (Simulation time: 0 hr 9 min 36 sec) 
Heartbeat CPU 0 instructions: 60000000 cycles: 96376268 heartbeat IPC: 0.285665 cumulative IPC: 0.54308 (Simulation time: 0 hr 13 min 20 sec) 
Heartbeat CPU 0 instructions: 70000001 cycles: 125363416 heartbeat IPC: 0.344981 cumulative IPC: 0.495644 (Simulation time: 0 hr 16 min 38 sec) 
Heartbeat CPU 0 instructions: 80000003 cycles: 135799100 heartbeat IPC: 0.958251 cumulative IPC: 0.532358 (Simulation time: 0 hr 18 min 25 sec) 
Heartbeat CPU 0 instructions: 90000002 cycles: 146089938 heartbeat IPC: 0.971738 cumulative IPC: 0.56425 (Simulation time: 0 hr 20 min 8 sec) 
Heartbeat CPU 0 instructions: 100000000 cycles: 156420823 heartbeat IPC: 0.967971 cumulative IPC: 0.591669 (Simulation time: 0 hr 21 min 46 sec) 
Heartbeat CPU 0 instructions: 110000000 cycles: 166798331 heartbeat IPC: 0.963622 cumulative IPC: 0.615424 (Simulation time: 0 hr 23 min 34 sec) 
Finished CPU 0 instructions: 100000003 cycles: 162489590 cumulative IPC: 0.615424 (Simulation time: 0 hr 23 min 34 sec) 

ChampSim completed all CPUs

Region of Interest Statistics

CPU 0 cumulative IPC: 0.615424 instructions: 100000003 cycles: 162489590
cpu0_DTLB TOTAL     ACCESS:   27976311  HIT:   27878663  MISS:      97648
cpu0_DTLB LOAD      ACCESS:   23303061  HIT:   23217164  MISS:      85897
cpu0_DTLB RFO       ACCESS:    4673250  HIT:    4661499  MISS:      11751
cpu0_DTLB PREFETCH  ACCESS:          0  HIT:          0  MISS:          0
cpu0_DTLB WRITEBACK ACCESS:          0  HIT:          0  MISS:          0
cpu0_DTLB TRANSLATION ACCESS:          0  HIT:          0  MISS:          0
cpu0_DTLB PREFETCH  REQUESTED:          0  ISSUED:          0  USEFUL:          0  USELESS:          0
cpu0_DTLB AVERAGE MISS LATENCY: 52.091 cycles
cpu0_ITLB TOTAL     ACCESS:    2882522  HIT:    2882509  MISS:         13
cpu0_ITLB LOAD      ACCESS:    2882522  HIT:    2882509  MISS:         13
cpu0_ITLB RFO       ACCESS:          0  HIT:          0  MISS:          0
cpu0_ITLB PREFETCH  ACCESS:          0  HIT:          0  MISS:          0
cpu0_ITLB WRITEBACK ACCESS:          0  HIT:          0  MISS:          0
cpu0_ITLB TRANSLATION ACCESS:          0  HIT:          0  MISS:          0
cpu0_ITLB PREFETCH  REQUESTED:          0  ISSUED:          0  USEFUL:          0  USELESS:          0
cpu0_ITLB AVERAGE MISS LATENCY: 294.231 cycles
cpu0_L1I TOTAL     ACCESS:    1734923  HIT:    1734543  MISS:        380
cpu0_L1I LOAD      ACCESS:    1734923  HIT:    1734543  MISS:        380
cpu0_L1I RFO       ACCESS:          0  HIT:          0  MISS:          0
cpu0_L1I PREFETCH  ACCESS:          0  HIT:          0  MISS:          0
cpu0_L1I WRITEBACK ACCESS:          0  HIT:          0  MISS:          0
cpu0_L1I TRANSLATION ACCESS:          0  HIT:          0  MISS:          0
cpu0_L1I PREFETCH  REQUESTED:          0  ISSUED:          0  USEFUL:          0  USELESS:          0
cpu0_L1I AVERAGE MISS LATENCY: 321.095 cycles
cpu0_STLB TOTAL     ACCESS:      97661  HIT:      70259  MISS:      27402
cpu0_STLB LOAD      ACCESS:      85910  HIT:      63183  MISS:      22727
cpu0_STLB RFO       ACCESS:      11751  HIT:       7076  MISS:       4675
cpu0_STLB PREFETCH  ACCESS:          0  HIT:          0  MISS:          0
cpu0_STLB WRITEBACK ACCESS:          0  HIT:          0  MISS:          0
cpu0_STLB TRANSLATION ACCESS:          0  HIT:          0  MISS:          0
cpu0_STLB PREFETCH  REQUESTED:          0  ISSUED:          0  USEFUL:          0  USELESS:          0
cpu0_STLB AVERAGE MISS LATENCY: 153.637 cycles
cpu0_L1D TOTAL     ACCESS:   27014954  HIT:   23111879  MISS:    3903075
cpu0_L1D LOAD      ACCESS:   17792832  HIT:   14608750  MISS:    3184082
cpu0_L1D RFO       ACCESS:    9197555  HIT:    8482004  MISS:     715551
cpu0_L1D PREFETCH  ACCESS:          0  HIT:          0  MISS:          0
cpu0_L1D WRITEBACK ACCESS:          0  HIT:          0  MISS:          0
cpu0_L1D TRANSLATION ACCESS:      24567  HIT:      21125  MISS:       3442
cpu0_L1D PREFETCH  REQUESTED:          0  ISSUED:          0  USEFUL:          0  USELESS:          0
cpu0_L1D AVERAGE MISS LATENCY: 355.149 cycles
cpu0_L2C TOTAL     ACCESS:    4956606  HIT:    2399194  MISS:    2557412
cpu0_L2C LOAD      ACCESS:    3184413  HIT:    1037077  MISS:    2147336
cpu0_L2C RFO       ACCESS:     715235  HIT:     307572  MISS:     407663
cpu0_L2C PREFETCH  ACCESS:          0  HIT:          0  MISS:          0
cpu0_L2C WRITEBACK ACCESS:    1053516  HIT:    1051314  MISS:       2202
cpu0_L2C TRANSLATION ACCESS:       3442  HIT:       3231  MISS:        211
cpu0_L2C PREFETCH  REQUESTED:          0  ISSUED:          0  USEFUL:          0  USELESS:          0
cpu0_L2C AVERAGE MISS LATENCY: 525.224 cycles
LLC TOTAL     ACCESS:    3217541  HIT:     868927  MISS:    2348614
LLC LOAD      ACCESS:    2147325  HIT:     560448  MISS:    1586877
LLC RFO       ACCESS:     407653  HIT:     109169  MISS:     298484
LLC PREFETCH  ACCESS:          0  HIT:          0  MISS:          0
LLC WRITEBACK ACCESS:     662352  HIT:     199243  MISS:     463109
LLC TRANSLATION ACCESS:        211  HIT:         67  MISS:        144
LLC PREFETCH  REQUESTED:          0  ISSUED:          0  USEFUL:          0  USELESS:          0
LLC AVERAGE MISS LATENCY: 549.026 cycles
OPTgen accesses: 43414
OPTgen hits: 14154
OPTgen hit rate: 32.6024



DRAM Statistics
 CHANNEL 0
 RQ ROW_BUFFER_HIT:     208471  ROW_BUFFER_MISS:    1676736
 DBUS AVG_CONGESTED_CYCLE:    3.95063
 WQ ROW_BUFFER_HIT:      40323  ROW_BUFFER_MISS:     504643  FULL:      21065


CPU 0 Branch Prediction Accuracy: 96.8384% MPKI: 1.47634 Average ROB Occupancy at Mispredict: 311.718
Branch type MPKI
BRANCH_DIRECT_JUMP: 0.00016
BRANCH_INDIRECT: 0
BRANCH_CONDITIONAL: 1.47504
BRANCH_DIRECT_CALL: 0.00057
BRANCH_INDIRECT_CALL: 0
BRANCH_RETURN: 0.00057

