
*** ChampSim Multicore Out-of-Order Simulator ***

Warmup Instructions: 10000000
Simulation Instructions: 100000000
Number of CPUs: 1
Off-chip DRAM Size: 4 GiB Channels: 1 Width: 64-bit Data Rate: 3200 MT/s

VirtualMemory physical capacity: 8588881920 num_ppages: 2096895
VirtualMemory page size: 4096 log2_page_size: 12

CPU 0 runs /datasets/cs240c-wi22-a00-public/data/Assignment2/mcf_46B.trace.xz
CPU 0 Bimodal branch predictor
Basic BTB sets: 1024 ways: 8 indirect buffer size: 4096 RAS size: 64
Initialize Hawkeye state
Heartbeat CPU 0 instructions: 10000002 cycles: 3434383 heartbeat IPC: 2.91173 cumulative IPC: 2.91173 (Simulation time: 0 hr 0 min 48 sec) 

Warmup complete CPU 0 instructions: 10000002 cycles: 3434383 (Simulation time: 0 hr 0 min 48 sec) 

Heartbeat CPU 0 instructions: 20000001 cycles: 118385998 heartbeat IPC: 0.0869931 cumulative IPC: 0.0869931 (Simulation time: 0 hr 4 min 34 sec) 
Heartbeat CPU 0 instructions: 30000004 cycles: 227116849 heartbeat IPC: 0.0919702 cumulative IPC: 0.0894125 (Simulation time: 0 hr 8 min 2 sec) 
Heartbeat CPU 0 instructions: 40000004 cycles: 334988453 heartbeat IPC: 0.0927028 cumulative IPC: 0.090483 (Simulation time: 0 hr 11 min 22 sec) 
Heartbeat CPU 0 instructions: 50000003 cycles: 440982509 heartbeat IPC: 0.0943449 cumulative IPC: 0.0914185 (Simulation time: 0 hr 14 min 38 sec) 
Heartbeat CPU 0 instructions: 60000000 cycles: 552890190 heartbeat IPC: 0.0893593 cumulative IPC: 0.0909991 (Simulation time: 0 hr 18 min 12 sec) 
Heartbeat CPU 0 instructions: 70000004 cycles: 664834128 heartbeat IPC: 0.0893305 cumulative IPC: 0.0907167 (Simulation time: 0 hr 21 min 51 sec) 
Heartbeat CPU 0 instructions: 80000003 cycles: 774273464 heartbeat IPC: 0.0913748 cumulative IPC: 0.0908101 (Simulation time: 0 hr 25 min 25 sec) 
Heartbeat CPU 0 instructions: 90000001 cycles: 884257298 heartbeat IPC: 0.0909224 cumulative IPC: 0.0908242 (Simulation time: 0 hr 29 min 0 sec) 
Heartbeat CPU 0 instructions: 100000001 cycles: 994010667 heartbeat IPC: 0.0911134 cumulative IPC: 0.0908562 (Simulation time: 0 hr 32 min 41 sec) 
Heartbeat CPU 0 instructions: 110000002 cycles: 1099053616 heartbeat IPC: 0.0951992 cumulative IPC: 0.0912726 (Simulation time: 0 hr 36 min 7 sec) 
Finished CPU 0 instructions: 100000000 cycles: 1095619233 cumulative IPC: 0.0912726 (Simulation time: 0 hr 36 min 7 sec) 

ChampSim completed all CPUs

Region of Interest Statistics

CPU 0 cumulative IPC: 0.0912726 instructions: 100000000 cycles: 1095619233
cpu0_DTLB TOTAL     ACCESS:   23847599  HIT:   14579052  MISS:    9268547
cpu0_DTLB LOAD      ACCESS:   20115641  HIT:   11374850  MISS:    8740791
cpu0_DTLB RFO       ACCESS:    3731958  HIT:    3204202  MISS:     527756
cpu0_DTLB PREFETCH  ACCESS:          0  HIT:          0  MISS:          0
cpu0_DTLB WRITEBACK ACCESS:          0  HIT:          0  MISS:          0
cpu0_DTLB TRANSLATION ACCESS:          0  HIT:          0  MISS:          0
cpu0_DTLB PREFETCH  REQUESTED:          0  ISSUED:          0  USEFUL:          0  USELESS:          0
cpu0_DTLB AVERAGE MISS LATENCY: 12.8162 cycles
cpu0_ITLB TOTAL     ACCESS:   12709141  HIT:   12709141  MISS:          0
cpu0_ITLB LOAD      ACCESS:   12709141  HIT:   12709141  MISS:          0
cpu0_ITLB RFO       ACCESS:          0  HIT:          0  MISS:          0
cpu0_ITLB PREFETCH  ACCESS:          0  HIT:          0  MISS:          0
cpu0_ITLB WRITEBACK ACCESS:          0  HIT:          0  MISS:          0
cpu0_ITLB TRANSLATION ACCESS:          0  HIT:          0  MISS:          0
cpu0_ITLB PREFETCH  REQUESTED:          0  ISSUED:          0  USEFUL:          0  USELESS:          0
cpu0_ITLB AVERAGE MISS LATENCY: -nan cycles
cpu0_L1I TOTAL     ACCESS:         52  HIT:         52  MISS:          0
cpu0_L1I LOAD      ACCESS:         52  HIT:         52  MISS:          0
cpu0_L1I RFO       ACCESS:          0  HIT:          0  MISS:          0
cpu0_L1I PREFETCH  ACCESS:          0  HIT:          0  MISS:          0
cpu0_L1I WRITEBACK ACCESS:          0  HIT:          0  MISS:          0
cpu0_L1I TRANSLATION ACCESS:          0  HIT:          0  MISS:          0
cpu0_L1I PREFETCH  REQUESTED:          0  ISSUED:          0  USEFUL:          0  USELESS:          0
cpu0_L1I AVERAGE MISS LATENCY: -nan cycles
cpu0_STLB TOTAL     ACCESS:    9268547  HIT:    7944998  MISS:    1323549
cpu0_STLB LOAD      ACCESS:    8740791  HIT:    7428349  MISS:    1312442
cpu0_STLB RFO       ACCESS:     527756  HIT:     516649  MISS:      11107
cpu0_STLB PREFETCH  ACCESS:          0  HIT:          0  MISS:          0
cpu0_STLB WRITEBACK ACCESS:          0  HIT:          0  MISS:          0
cpu0_STLB TRANSLATION ACCESS:          0  HIT:          0  MISS:          0
cpu0_STLB PREFETCH  REQUESTED:          0  ISSUED:          0  USEFUL:          0  USELESS:          0
cpu0_STLB AVERAGE MISS LATENCY: 26.6493 cycles
cpu0_L1D TOTAL     ACCESS:   28047083  HIT:   16269864  MISS:   11777219
cpu0_L1D LOAD      ACCESS:   21748785  HIT:   10445663  MISS:   11303122
cpu0_L1D RFO       ACCESS:    4979289  HIT:    4680482  MISS:     298807
cpu0_L1D PREFETCH  ACCESS:          0  HIT:          0  MISS:          0
cpu0_L1D WRITEBACK ACCESS:          0  HIT:          0  MISS:          0
cpu0_L1D TRANSLATION ACCESS:    1319009  HIT:    1143719  MISS:     175290
cpu0_L1D PREFETCH  REQUESTED:          0  ISSUED:          0  USEFUL:          0  USELESS:          0
cpu0_L1D AVERAGE MISS LATENCY: 259.525 cycles
cpu0_L2C TOTAL     ACCESS:   14258351  HIT:    5810753  MISS:    8447598
cpu0_L2C LOAD      ACCESS:   11302667  HIT:    3070092  MISS:    8232575
cpu0_L2C RFO       ACCESS:     298795  HIT:     121229  MISS:     177566
cpu0_L2C PREFETCH  ACCESS:          0  HIT:          0  MISS:          0
cpu0_L2C WRITEBACK ACCESS:    2481599  HIT:    2480999  MISS:        600
cpu0_L2C TRANSLATION ACCESS:     175290  HIT:     138433  MISS:      36857
cpu0_L2C PREFETCH  REQUESTED:          0  ISSUED:          0  USEFUL:          0  USELESS:          0
cpu0_L2C AVERAGE MISS LATENCY: 346.374 cycles
LLC TOTAL     ACCESS:   10351880  HIT:    3760747  MISS:    6591133
LLC LOAD      ACCESS:    8232575  HIT:    2639142  MISS:    5593433
LLC RFO       ACCESS:     177566  HIT:      81671  MISS:      95895
LLC PREFETCH  ACCESS:          0  HIT:          0  MISS:          0
LLC WRITEBACK ACCESS:    1904882  HIT:    1036454  MISS:     868428
LLC TRANSLATION ACCESS:      36857  HIT:       3480  MISS:      33377
LLC PREFETCH  REQUESTED:          0  ISSUED:          0  USEFUL:          0  USELESS:          0
LLC AVERAGE MISS LATENCY: 417.021 cycles
OPTgen accesses: 142152
OPTgen hits: 54024
OPTgen hit rate: 38.0044



DRAM Statistics
 CHANNEL 0
 RQ ROW_BUFFER_HIT:      14685  ROW_BUFFER_MISS:    5706931
 DBUS AVG_CONGESTED_CYCLE:    3.95794
 WQ ROW_BUFFER_HIT:      29614  ROW_BUFFER_MISS:    1382205  FULL:          0


CPU 0 Branch Prediction Accuracy: 85.442% MPKI: 39.3219 Average ROB Occupancy at Mispredict: 18.849
Branch type MPKI
BRANCH_DIRECT_JUMP: 0
BRANCH_INDIRECT: 0
BRANCH_CONDITIONAL: 39.3219
BRANCH_DIRECT_CALL: 0
BRANCH_INDIRECT_CALL: 0
BRANCH_RETURN: 0

