
*** ChampSim Multicore Out-of-Order Simulator ***

Warmup Instructions: 10000000
Simulation Instructions: 100000000
Number of CPUs: 1
Off-chip DRAM Size: 4 GiB Channels: 1 Width: 64-bit Data Rate: 3200 MT/s

VirtualMemory physical capacity: 8588881920 num_ppages: 2096895
VirtualMemory page size: 4096 log2_page_size: 12

CPU 0 runs /datasets/cs240c-wi22-a00-public/data/Assignment2/mcf_250B.trace.xz
CPU 0 Bimodal branch predictor
Basic BTB sets: 1024 ways: 8 indirect buffer size: 4096 RAS size: 64
Initialize Hawkeye state
Heartbeat CPU 0 instructions: 10000004 cycles: 3834271 heartbeat IPC: 2.60806 cumulative IPC: 2.60806 (Simulation time: 0 hr 0 min 55 sec) 

Warmup complete CPU 0 instructions: 10000004 cycles: 3834271 (Simulation time: 0 hr 0 min 55 sec) 

Heartbeat CPU 0 instructions: 20000000 cycles: 147441607 heartbeat IPC: 0.0696343 cumulative IPC: 0.0696343 (Simulation time: 0 hr 5 min 8 sec) 
Heartbeat CPU 0 instructions: 30000000 cycles: 285576131 heartbeat IPC: 0.0723932 cumulative IPC: 0.0709869 (Simulation time: 0 hr 9 min 10 sec) 
Heartbeat CPU 0 instructions: 40000000 cycles: 435860932 heartbeat IPC: 0.0665403 cumulative IPC: 0.0694401 (Simulation time: 0 hr 13 min 30 sec) 
Heartbeat CPU 0 instructions: 50000000 cycles: 577155226 heartbeat IPC: 0.0707743 cumulative IPC: 0.0697689 (Simulation time: 0 hr 17 min 44 sec) 
Heartbeat CPU 0 instructions: 60000000 cycles: 717924320 heartbeat IPC: 0.0710383 cumulative IPC: 0.0700192 (Simulation time: 0 hr 21 min 56 sec) 
Heartbeat CPU 0 instructions: 70000000 cycles: 851602066 heartbeat IPC: 0.0748068 cumulative IPC: 0.0707741 (Simulation time: 0 hr 25 min 56 sec) 
Heartbeat CPU 0 instructions: 80000000 cycles: 995216991 heartbeat IPC: 0.0696306 cumulative IPC: 0.0706085 (Simulation time: 0 hr 30 min 9 sec) 
Heartbeat CPU 0 instructions: 90000000 cycles: 1122169136 heartbeat IPC: 0.0787698 cumulative IPC: 0.0715349 (Simulation time: 0 hr 33 min 54 sec) 
Heartbeat CPU 0 instructions: 100000000 cycles: 1262505551 heartbeat IPC: 0.0712573 cumulative IPC: 0.071504 (Simulation time: 0 hr 37 min 56 sec) 
Heartbeat CPU 0 instructions: 110000000 cycles: 1405831608 heartbeat IPC: 0.069771 cumulative IPC: 0.0713268 (Simulation time: 0 hr 42 min 10 sec) 
Finished CPU 0 instructions: 100000000 cycles: 1401997348 cumulative IPC: 0.0713268 (Simulation time: 0 hr 42 min 10 sec) 

ChampSim completed all CPUs

Region of Interest Statistics

CPU 0 cumulative IPC: 0.0713268 instructions: 100000000 cycles: 1401997348
cpu0_DTLB TOTAL     ACCESS:   20766379  HIT:    2976067  MISS:   17790312
cpu0_DTLB LOAD      ACCESS:   20271145  HIT:    2536724  MISS:   17734421
cpu0_DTLB RFO       ACCESS:     495234  HIT:     439343  MISS:      55891
cpu0_DTLB PREFETCH  ACCESS:          0  HIT:          0  MISS:          0
cpu0_DTLB WRITEBACK ACCESS:          0  HIT:          0  MISS:          0
cpu0_DTLB TRANSLATION ACCESS:          0  HIT:          0  MISS:          0
cpu0_DTLB PREFETCH  REQUESTED:          0  ISSUED:          0  USEFUL:          0  USELESS:          0
cpu0_DTLB AVERAGE MISS LATENCY: 11.9385 cycles
cpu0_ITLB TOTAL     ACCESS:   11315081  HIT:   11315081  MISS:          0
cpu0_ITLB LOAD      ACCESS:   11315081  HIT:   11315081  MISS:          0
cpu0_ITLB RFO       ACCESS:          0  HIT:          0  MISS:          0
cpu0_ITLB PREFETCH  ACCESS:          0  HIT:          0  MISS:          0
cpu0_ITLB WRITEBACK ACCESS:          0  HIT:          0  MISS:          0
cpu0_ITLB TRANSLATION ACCESS:          0  HIT:          0  MISS:          0
cpu0_ITLB PREFETCH  REQUESTED:          0  ISSUED:          0  USEFUL:          0  USELESS:          0
cpu0_ITLB AVERAGE MISS LATENCY: -nan cycles
cpu0_L1I TOTAL     ACCESS:          4  HIT:          4  MISS:          0
cpu0_L1I LOAD      ACCESS:          4  HIT:          4  MISS:          0
cpu0_L1I RFO       ACCESS:          0  HIT:          0  MISS:          0
cpu0_L1I PREFETCH  ACCESS:          0  HIT:          0  MISS:          0
cpu0_L1I WRITEBACK ACCESS:          0  HIT:          0  MISS:          0
cpu0_L1I TRANSLATION ACCESS:          0  HIT:          0  MISS:          0
cpu0_L1I PREFETCH  REQUESTED:          0  ISSUED:          0  USEFUL:          0  USELESS:          0
cpu0_L1I AVERAGE MISS LATENCY: -nan cycles
cpu0_STLB TOTAL     ACCESS:   17790312  HIT:   17413176  MISS:     377136
cpu0_STLB LOAD      ACCESS:   17734421  HIT:   17359422  MISS:     374999
cpu0_STLB RFO       ACCESS:      55891  HIT:      53754  MISS:       2137
cpu0_STLB PREFETCH  ACCESS:          0  HIT:          0  MISS:          0
cpu0_STLB WRITEBACK ACCESS:          0  HIT:          0  MISS:          0
cpu0_STLB TRANSLATION ACCESS:          0  HIT:          0  MISS:          0
cpu0_STLB PREFETCH  REQUESTED:          0  ISSUED:          0  USEFUL:          0  USELESS:          0
cpu0_STLB AVERAGE MISS LATENCY: 138.588 cycles
cpu0_L1D TOTAL     ACCESS:   21384592  HIT:    3440697  MISS:   17943895
cpu0_L1D LOAD      ACCESS:   20343936  HIT:    2559973  MISS:   17783963
cpu0_L1D RFO       ACCESS:     664706  HIT:     633047  MISS:      31659
cpu0_L1D PREFETCH  ACCESS:          0  HIT:          0  MISS:          0
cpu0_L1D WRITEBACK ACCESS:          0  HIT:          0  MISS:          0
cpu0_L1D TRANSLATION ACCESS:     375950  HIT:     247677  MISS:     128273
cpu0_L1D PREFETCH  REQUESTED:          0  ISSUED:          0  USEFUL:          0  USELESS:          0
cpu0_L1D AVERAGE MISS LATENCY: 230.403 cycles
cpu0_L2C TOTAL     ACCESS:   18302554  HIT:    5792262  MISS:   12510292
cpu0_L2C LOAD      ACCESS:   17783936  HIT:    5386535  MISS:   12397401
cpu0_L2C RFO       ACCESS:      31658  HIT:       9145  MISS:      22513
cpu0_L2C PREFETCH  ACCESS:          0  HIT:          0  MISS:          0
cpu0_L2C WRITEBACK ACCESS:     358687  HIT:     358685  MISS:          2
cpu0_L2C TRANSLATION ACCESS:     128273  HIT:      37897  MISS:      90376
cpu0_L2C PREFETCH  REQUESTED:          0  ISSUED:          0  USEFUL:          0  USELESS:          0
cpu0_L2C AVERAGE MISS LATENCY: 314.684 cycles
LLC TOTAL     ACCESS:   12800273  HIT:    5759476  MISS:    7040797
LLC LOAD      ACCESS:   12397401  HIT:    5568279  MISS:    6829122
LLC RFO       ACCESS:      22513  HIT:      11294  MISS:      11219
LLC PREFETCH  ACCESS:          0  HIT:          0  MISS:          0
LLC WRITEBACK ACCESS:     289983  HIT:     168391  MISS:     121592
LLC TRANSLATION ACCESS:      90376  HIT:      11512  MISS:      78864
LLC PREFETCH  REQUESTED:          0  ISSUED:          0  USEFUL:          0  USELESS:          0
LLC AVERAGE MISS LATENCY: 521.827 cycles
OPTgen accesses: 215308
OPTgen hits: 97500
OPTgen hit rate: 45.284



DRAM Statistics
 CHANNEL 0
 RQ ROW_BUFFER_HIT:      42018  ROW_BUFFER_MISS:    6877005
 DBUS AVG_CONGESTED_CYCLE:    3.96322
 WQ ROW_BUFFER_HIT:      10151  ROW_BUFFER_MISS:     210573  FULL:          0


CPU 0 Branch Prediction Accuracy: 91.6559% MPKI: 25.5287 Average ROB Occupancy at Mispredict: 24.4587
Branch type MPKI
BRANCH_DIRECT_JUMP: 2e-05
BRANCH_INDIRECT: 0
BRANCH_CONDITIONAL: 25.5287
BRANCH_DIRECT_CALL: 0
BRANCH_INDIRECT_CALL: 0
BRANCH_RETURN: 0

