
*** ChampSim Multicore Out-of-Order Simulator ***

Warmup Instructions: 10000000
Simulation Instructions: 100000000
Number of CPUs: 1
Off-chip DRAM Size: 4 GiB Channels: 1 Width: 64-bit Data Rate: 3200 MT/s

VirtualMemory physical capacity: 8588881920 num_ppages: 2096895
VirtualMemory page size: 4096 log2_page_size: 12

CPU 0 runs /datasets/cs240c-wi22-a00-public/data/Assignment2/omnetpp_340B.trace.xz
CPU 0 Bimodal branch predictor
Basic BTB sets: 1024 ways: 8 indirect buffer size: 4096 RAS size: 64
Initialize Hawkeye state
Heartbeat CPU 0 instructions: 10000002 cycles: 2500207 heartbeat IPC: 3.99967 cumulative IPC: 3.99967 (Simulation time: 0 hr 0 min 38 sec) 

Warmup complete CPU 0 instructions: 10000002 cycles: 2500207 (Simulation time: 0 hr 0 min 38 sec) 

Heartbeat CPU 0 instructions: 20000004 cycles: 27918967 heartbeat IPC: 0.39341 cumulative IPC: 0.39341 (Simulation time: 0 hr 2 min 4 sec) 
Heartbeat CPU 0 instructions: 30000002 cycles: 53288249 heartbeat IPC: 0.394177 cumulative IPC: 0.393793 (Simulation time: 0 hr 3 min 28 sec) 
Heartbeat CPU 0 instructions: 40000000 cycles: 78042557 heartbeat IPC: 0.40397 cumulative IPC: 0.397128 (Simulation time: 0 hr 4 min 50 sec) 
Heartbeat CPU 0 instructions: 50000002 cycles: 103387371 heartbeat IPC: 0.394558 cumulative IPC: 0.396483 (Simulation time: 0 hr 6 min 11 sec) 
Heartbeat CPU 0 instructions: 60000001 cycles: 128888685 heartbeat IPC: 0.392137 cumulative IPC: 0.395606 (Simulation time: 0 hr 7 min 39 sec) 
Heartbeat CPU 0 instructions: 70000003 cycles: 154986758 heartbeat IPC: 0.38317 cumulative IPC: 0.393477 (Simulation time: 0 hr 9 min 1 sec) 
Heartbeat CPU 0 instructions: 80000003 cycles: 181313774 heartbeat IPC: 0.379838 cumulative IPC: 0.391469 (Simulation time: 0 hr 10 min 31 sec) 
Heartbeat CPU 0 instructions: 90000000 cycles: 207871045 heartbeat IPC: 0.376545 cumulative IPC: 0.389539 (Simulation time: 0 hr 11 min 55 sec) 
Heartbeat CPU 0 instructions: 100000000 cycles: 234657492 heartbeat IPC: 0.373323 cumulative IPC: 0.387668 (Simulation time: 0 hr 13 min 26 sec) 
Heartbeat CPU 0 instructions: 110000000 cycles: 260018901 heartbeat IPC: 0.3943 cumulative IPC: 0.388321 (Simulation time: 0 hr 14 min 53 sec) 
Finished CPU 0 instructions: 100000000 cycles: 257518696 cumulative IPC: 0.388321 (Simulation time: 0 hr 14 min 53 sec) 

ChampSim completed all CPUs

Region of Interest Statistics

CPU 0 cumulative IPC: 0.388321 instructions: 100000000 cycles: 257518696
cpu0_DTLB TOTAL     ACCESS:   23837317  HIT:   21940188  MISS:    1897129
cpu0_DTLB LOAD      ACCESS:   13867683  HIT:   12286510  MISS:    1581173
cpu0_DTLB RFO       ACCESS:    9969634  HIT:    9653678  MISS:     315956
cpu0_DTLB PREFETCH  ACCESS:          0  HIT:          0  MISS:          0
cpu0_DTLB WRITEBACK ACCESS:          0  HIT:          0  MISS:          0
cpu0_DTLB TRANSLATION ACCESS:          0  HIT:          0  MISS:          0
cpu0_DTLB PREFETCH  REQUESTED:          0  ISSUED:          0  USEFUL:          0  USELESS:          0
cpu0_DTLB AVERAGE MISS LATENCY: 13.1627 cycles
cpu0_ITLB TOTAL     ACCESS:   11128570  HIT:   11093203  MISS:      35367
cpu0_ITLB LOAD      ACCESS:   11128570  HIT:   11093203  MISS:      35367
cpu0_ITLB RFO       ACCESS:          0  HIT:          0  MISS:          0
cpu0_ITLB PREFETCH  ACCESS:          0  HIT:          0  MISS:          0
cpu0_ITLB WRITEBACK ACCESS:          0  HIT:          0  MISS:          0
cpu0_ITLB TRANSLATION ACCESS:          0  HIT:          0  MISS:          0
cpu0_ITLB PREFETCH  REQUESTED:          0  ISSUED:          0  USEFUL:          0  USELESS:          0
cpu0_ITLB AVERAGE MISS LATENCY: 9.29019 cycles
cpu0_L1I TOTAL     ACCESS:    8347286  HIT:    8340934  MISS:       6352
cpu0_L1I LOAD      ACCESS:    8347286  HIT:    8340934  MISS:       6352
cpu0_L1I RFO       ACCESS:          0  HIT:          0  MISS:          0
cpu0_L1I PREFETCH  ACCESS:          0  HIT:          0  MISS:          0
cpu0_L1I WRITEBACK ACCESS:          0  HIT:          0  MISS:          0
cpu0_L1I TRANSLATION ACCESS:          0  HIT:          0  MISS:          0
cpu0_L1I PREFETCH  REQUESTED:          0  ISSUED:          0  USEFUL:          0  USELESS:          0
cpu0_L1I AVERAGE MISS LATENCY: 60.0044 cycles
cpu0_STLB TOTAL     ACCESS:    1932496  HIT:    1457303  MISS:     475193
cpu0_STLB LOAD      ACCESS:    1616540  HIT:    1262656  MISS:     353884
cpu0_STLB RFO       ACCESS:     315956  HIT:     194647  MISS:     121309
cpu0_STLB PREFETCH  ACCESS:          0  HIT:          0  MISS:          0
cpu0_STLB WRITEBACK ACCESS:          0  HIT:          0  MISS:          0
cpu0_STLB TRANSLATION ACCESS:          0  HIT:          0  MISS:          0
cpu0_STLB PREFETCH  REQUESTED:          0  ISSUED:          0  USEFUL:          0  USELESS:          0
cpu0_STLB AVERAGE MISS LATENCY: 16.1701 cycles
cpu0_L1D TOTAL     ACCESS:   31427754  HIT:   28929850  MISS:    2497904
cpu0_L1D LOAD      ACCESS:   15707057  HIT:   13524200  MISS:    2182857
cpu0_L1D RFO       ACCESS:   15280299  HIT:   14969758  MISS:     310541
cpu0_L1D PREFETCH  ACCESS:          0  HIT:          0  MISS:          0
cpu0_L1D WRITEBACK ACCESS:          0  HIT:          0  MISS:          0
cpu0_L1D TRANSLATION ACCESS:     440398  HIT:     435892  MISS:       4506
cpu0_L1D PREFETCH  REQUESTED:          0  ISSUED:          0  USEFUL:          0  USELESS:          0
cpu0_L1D AVERAGE MISS LATENCY: 145.078 cycles
cpu0_L2C TOTAL     ACCESS:    3581353  HIT:    1431350  MISS:    2150003
cpu0_L2C LOAD      ACCESS:    2189171  HIT:     330907  MISS:    1858264
cpu0_L2C RFO       ACCESS:     310541  HIT:      22176  MISS:     288365
cpu0_L2C PREFETCH  ACCESS:          0  HIT:          0  MISS:          0
cpu0_L2C WRITEBACK ACCESS:    1077135  HIT:    1074860  MISS:       2275
cpu0_L2C TRANSLATION ACCESS:       4506  HIT:       3407  MISS:       1099
cpu0_L2C PREFETCH  REQUESTED:          0  ISSUED:          0  USEFUL:          0  USELESS:          0
cpu0_L2C AVERAGE MISS LATENCY: 155.76 cycles
LLC TOTAL     ACCESS:    3079070  HIT:    1021881  MISS:    2057189
LLC LOAD      ACCESS:    1858263  HIT:     408486  MISS:    1449777
LLC RFO       ACCESS:     288365  HIT:      74151  MISS:     214214
LLC PREFETCH  ACCESS:          0  HIT:          0  MISS:          0
LLC WRITEBACK ACCESS:     931343  HIT:     538584  MISS:     392759
LLC TRANSLATION ACCESS:       1099  HIT:        660  MISS:        439
LLC PREFETCH  REQUESTED:          0  ISSUED:          0  USEFUL:          0  USELESS:          0
LLC AVERAGE MISS LATENCY: 140.863 cycles
OPTgen accesses: 36913
OPTgen hits: 14735
OPTgen hit rate: 39.9182



DRAM Statistics
 CHANNEL 0
 RQ ROW_BUFFER_HIT:      90202  ROW_BUFFER_MISS:    1574112
 DBUS AVG_CONGESTED_CYCLE:    3.92262
 WQ ROW_BUFFER_HIT:     174042  ROW_BUFFER_MISS:     534248  FULL:          0


CPU 0 Branch Prediction Accuracy: 94.4212% MPKI: 13.4017 Average ROB Occupancy at Mispredict: 52.3959
Branch type MPKI
BRANCH_DIRECT_JUMP: 0.00017
BRANCH_INDIRECT: 0.04543
BRANCH_CONDITIONAL: 13.2857
BRANCH_DIRECT_CALL: 8e-05
BRANCH_INDIRECT_CALL: 0.04734
BRANCH_RETURN: 0.02301

