
*** ChampSim Multicore Out-of-Order Simulator ***

Warmup Instructions: 10000000
Simulation Instructions: 100000000
Number of CPUs: 1
Off-chip DRAM Size: 4 GiB Channels: 1 Width: 64-bit Data Rate: 3200 MT/s

VirtualMemory physical capacity: 8588881920 num_ppages: 2096895
VirtualMemory page size: 4096 log2_page_size: 12

CPU 0 runs /datasets/cs240c-wi22-a00-public/data/Assignment2/perlbench_135B.trace.xz
CPU 0 Bimodal branch predictor
Basic BTB sets: 1024 ways: 8 indirect buffer size: 4096 RAS size: 64
Initialize Hawkeye state
Heartbeat CPU 0 instructions: 10000000 cycles: 2501133 heartbeat IPC: 3.99819 cumulative IPC: 3.99819 (Simulation time: 0 hr 0 min 36 sec) 

Warmup complete CPU 0 instructions: 10000004 cycles: 2501134 (Simulation time: 0 hr 0 min 36 sec) 

Heartbeat CPU 0 instructions: 20000003 cycles: 16331176 heartbeat IPC: 0.723064 cumulative IPC: 0.723064 (Simulation time: 0 hr 1 min 30 sec) 
Heartbeat CPU 0 instructions: 30000004 cycles: 29093464 heartbeat IPC: 0.783559 cumulative IPC: 0.752097 (Simulation time: 0 hr 2 min 23 sec) 
Heartbeat CPU 0 instructions: 40000001 cycles: 40536988 heartbeat IPC: 0.873856 cumulative IPC: 0.788729 (Simulation time: 0 hr 3 min 12 sec) 
Heartbeat CPU 0 instructions: 50000000 cycles: 53157685 heartbeat IPC: 0.792349 cumulative IPC: 0.789631 (Simulation time: 0 hr 4 min 4 sec) 
Heartbeat CPU 0 instructions: 60000000 cycles: 64720590 heartbeat IPC: 0.864835 cumulative IPC: 0.803607 (Simulation time: 0 hr 4 min 54 sec) 
Heartbeat CPU 0 instructions: 70000001 cycles: 77641058 heartbeat IPC: 0.773966 cumulative IPC: 0.79851 (Simulation time: 0 hr 5 min 44 sec) 
Heartbeat CPU 0 instructions: 80000000 cycles: 88580995 heartbeat IPC: 0.914082 cumulative IPC: 0.813198 (Simulation time: 0 hr 6 min 29 sec) 
Heartbeat CPU 0 instructions: 90000004 cycles: 99458145 heartbeat IPC: 0.919359 cumulative IPC: 0.825108 (Simulation time: 0 hr 7 min 13 sec) 
Heartbeat CPU 0 instructions: 100000000 cycles: 112992508 heartbeat IPC: 0.73886 cumulative IPC: 0.814543 (Simulation time: 0 hr 8 min 6 sec) 
Heartbeat CPU 0 instructions: 110000000 cycles: 126283480 heartbeat IPC: 0.75239 cumulative IPC: 0.80787 (Simulation time: 0 hr 8 min 57 sec) 
Finished CPU 0 instructions: 100000000 cycles: 123782348 cumulative IPC: 0.80787 (Simulation time: 0 hr 8 min 57 sec) 

ChampSim completed all CPUs

Region of Interest Statistics

CPU 0 cumulative IPC: 0.80787 instructions: 100000000 cycles: 123782348
cpu0_DTLB TOTAL     ACCESS:   24834157  HIT:   24177409  MISS:     656748
cpu0_DTLB LOAD      ACCESS:   16163526  HIT:   15592086  MISS:     571440
cpu0_DTLB RFO       ACCESS:    8670631  HIT:    8585323  MISS:      85308
cpu0_DTLB PREFETCH  ACCESS:          0  HIT:          0  MISS:          0
cpu0_DTLB WRITEBACK ACCESS:          0  HIT:          0  MISS:          0
cpu0_DTLB TRANSLATION ACCESS:          0  HIT:          0  MISS:          0
cpu0_DTLB PREFETCH  REQUESTED:          0  ISSUED:          0  USEFUL:          0  USELESS:          0
cpu0_DTLB AVERAGE MISS LATENCY: 9.30608 cycles
cpu0_ITLB TOTAL     ACCESS:    8520280  HIT:    8442116  MISS:      78164
cpu0_ITLB LOAD      ACCESS:    8520280  HIT:    8442116  MISS:      78164
cpu0_ITLB RFO       ACCESS:          0  HIT:          0  MISS:          0
cpu0_ITLB PREFETCH  ACCESS:          0  HIT:          0  MISS:          0
cpu0_ITLB WRITEBACK ACCESS:          0  HIT:          0  MISS:          0
cpu0_ITLB TRANSLATION ACCESS:          0  HIT:          0  MISS:          0
cpu0_ITLB PREFETCH  REQUESTED:          0  ISSUED:          0  USEFUL:          0  USELESS:          0
cpu0_ITLB AVERAGE MISS LATENCY: 9.11647 cycles
cpu0_L1I TOTAL     ACCESS:    9977257  HIT:    9296944  MISS:     680313
cpu0_L1I LOAD      ACCESS:    9977257  HIT:    9296944  MISS:     680313
cpu0_L1I RFO       ACCESS:          0  HIT:          0  MISS:          0
cpu0_L1I PREFETCH  ACCESS:          0  HIT:          0  MISS:          0
cpu0_L1I WRITEBACK ACCESS:          0  HIT:          0  MISS:          0
cpu0_L1I TRANSLATION ACCESS:          0  HIT:          0  MISS:          0
cpu0_L1I PREFETCH  REQUESTED:          0  ISSUED:          0  USEFUL:          0  USELESS:          0
cpu0_L1I AVERAGE MISS LATENCY: 12.1408 cycles
cpu0_STLB TOTAL     ACCESS:     734912  HIT:     726459  MISS:       8453
cpu0_STLB LOAD      ACCESS:     649604  HIT:     642241  MISS:       7363
cpu0_STLB RFO       ACCESS:      85308  HIT:      84218  MISS:       1090
cpu0_STLB PREFETCH  ACCESS:          0  HIT:          0  MISS:          0
cpu0_STLB WRITEBACK ACCESS:          0  HIT:          0  MISS:          0
cpu0_STLB TRANSLATION ACCESS:          0  HIT:          0  MISS:          0
cpu0_STLB PREFETCH  REQUESTED:          0  ISSUED:          0  USEFUL:          0  USELESS:          0
cpu0_STLB AVERAGE MISS LATENCY: 24.3719 cycles
cpu0_L1D TOTAL     ACCESS:   32040525  HIT:   31087732  MISS:     952793
cpu0_L1D LOAD      ACCESS:   16947401  HIT:   16082950  MISS:     864451
cpu0_L1D RFO       ACCESS:   15084709  HIT:   14997929  MISS:      86780
cpu0_L1D PREFETCH  ACCESS:          0  HIT:          0  MISS:          0
cpu0_L1D WRITEBACK ACCESS:          0  HIT:          0  MISS:          0
cpu0_L1D TRANSLATION ACCESS:       8415  HIT:       6853  MISS:       1562
cpu0_L1D PREFETCH  REQUESTED:          0  ISSUED:          0  USEFUL:          0  USELESS:          0
cpu0_L1D AVERAGE MISS LATENCY: 17.5561 cycles
cpu0_L2C TOTAL     ACCESS:    1889417  HIT:    1714337  MISS:     175080
cpu0_L2C LOAD      ACCESS:    1544750  HIT:    1392625  MISS:     152125
cpu0_L2C RFO       ACCESS:      86773  HIT:      64518  MISS:      22255
cpu0_L2C PREFETCH  ACCESS:          0  HIT:          0  MISS:          0
cpu0_L2C WRITEBACK ACCESS:     256332  HIT:     255862  MISS:        470
cpu0_L2C TRANSLATION ACCESS:       1562  HIT:       1332  MISS:        230
cpu0_L2C PREFETCH  REQUESTED:          0  ISSUED:          0  USEFUL:          0  USELESS:          0
cpu0_L2C AVERAGE MISS LATENCY: 39.9586 cycles
LLC TOTAL     ACCESS:     226405  HIT:     203041  MISS:      23364
LLC LOAD      ACCESS:     152125  HIT:     133882  MISS:      18243
LLC RFO       ACCESS:      22255  HIT:      17644  MISS:       4611
LLC PREFETCH  ACCESS:          0  HIT:          0  MISS:          0
LLC WRITEBACK ACCESS:      51795  HIT:      51290  MISS:        505
LLC TRANSLATION ACCESS:        230  HIT:        225  MISS:          5
LLC PREFETCH  REQUESTED:          0  ISSUED:          0  USEFUL:          0  USELESS:          0
LLC AVERAGE MISS LATENCY: 142.489 cycles
OPTgen accesses: 3385
OPTgen hits: 2716
OPTgen hit rate: 80.2363



DRAM Statistics
 CHANNEL 0
 RQ ROW_BUFFER_HIT:       4848  ROW_BUFFER_MISS:      18011
 DBUS AVG_CONGESTED_CYCLE:    3.85495
 WQ ROW_BUFFER_HIT:       1179  ROW_BUFFER_MISS:       3328  FULL:          0


CPU 0 Branch Prediction Accuracy: 94.5426% MPKI: 12.0745 Average ROB Occupancy at Mispredict: 40.9016
Branch type MPKI
BRANCH_DIRECT_JUMP: 0.00217
BRANCH_INDIRECT: 0.80239
BRANCH_CONDITIONAL: 9.8183
BRANCH_DIRECT_CALL: 0.00216
BRANCH_INDIRECT_CALL: 1.42497
BRANCH_RETURN: 0.02455

