
*** ChampSim Multicore Out-of-Order Simulator ***

Warmup Instructions: 10000000
Simulation Instructions: 100000000
Number of CPUs: 1
Off-chip DRAM Size: 4 GiB Channels: 1 Width: 64-bit Data Rate: 3200 MT/s

VirtualMemory physical capacity: 8588881920 num_ppages: 2096895
VirtualMemory page size: 4096 log2_page_size: 12

CPU 0 runs /datasets/cs240c-wi22-a00-public/data/Assignment2/soplex_205B.trace.xz
CPU 0 Bimodal branch predictor
Basic BTB sets: 1024 ways: 8 indirect buffer size: 4096 RAS size: 64
Initialize Hawkeye state
Heartbeat CPU 0 instructions: 10000000 cycles: 2865173 heartbeat IPC: 3.49019 cumulative IPC: 3.49019 (Simulation time: 0 hr 0 min 37 sec) 

Warmup complete CPU 0 instructions: 10000004 cycles: 2865174 (Simulation time: 0 hr 0 min 37 sec) 

Heartbeat CPU 0 instructions: 20000004 cycles: 47008902 heartbeat IPC: 0.226533 cumulative IPC: 0.226533 (Simulation time: 0 hr 3 min 44 sec) 
Heartbeat CPU 0 instructions: 30000004 cycles: 83625707 heartbeat IPC: 0.273099 cumulative IPC: 0.247646 (Simulation time: 0 hr 5 min 28 sec) 
Heartbeat CPU 0 instructions: 40000004 cycles: 113788687 heartbeat IPC: 0.331532 cumulative IPC: 0.270457 (Simulation time: 0 hr 7 min 20 sec) 
Heartbeat CPU 0 instructions: 50000001 cycles: 144518163 heartbeat IPC: 0.32542 cumulative IPC: 0.28238 (Simulation time: 0 hr 9 min 12 sec) 
Heartbeat CPU 0 instructions: 60000000 cycles: 171916671 heartbeat IPC: 0.364983 cumulative IPC: 0.295768 (Simulation time: 0 hr 10 min 51 sec) 
Heartbeat CPU 0 instructions: 70000000 cycles: 202695073 heartbeat IPC: 0.324903 cumulative IPC: 0.300255 (Simulation time: 0 hr 12 min 48 sec) 
Heartbeat CPU 0 instructions: 80000003 cycles: 230437324 heartbeat IPC: 0.360461 cumulative IPC: 0.307595 (Simulation time: 0 hr 14 min 21 sec) 
Heartbeat CPU 0 instructions: 90000000 cycles: 262979673 heartbeat IPC: 0.307292 cumulative IPC: 0.307557 (Simulation time: 0 hr 16 min 18 sec) 
Heartbeat CPU 0 instructions: 100000002 cycles: 290137887 heartbeat IPC: 0.368213 cumulative IPC: 0.313291 (Simulation time: 0 hr 17 min 53 sec) 
Heartbeat CPU 0 instructions: 110000000 cycles: 345219778 heartbeat IPC: 0.181548 cumulative IPC: 0.292095 (Simulation time: 0 hr 20 min 52 sec) 
Finished CPU 0 instructions: 100000001 cycles: 342354605 cumulative IPC: 0.292095 (Simulation time: 0 hr 20 min 52 sec) 

ChampSim completed all CPUs

Region of Interest Statistics

CPU 0 cumulative IPC: 0.292095 instructions: 100000001 cycles: 342354605
cpu0_DTLB TOTAL     ACCESS:   22257474  HIT:   21294961  MISS:     962513
cpu0_DTLB LOAD      ACCESS:   16521407  HIT:   15781721  MISS:     739686
cpu0_DTLB RFO       ACCESS:    5736067  HIT:    5513240  MISS:     222827
cpu0_DTLB PREFETCH  ACCESS:          0  HIT:          0  MISS:          0
cpu0_DTLB WRITEBACK ACCESS:          0  HIT:          0  MISS:          0
cpu0_DTLB TRANSLATION ACCESS:          0  HIT:          0  MISS:          0
cpu0_DTLB PREFETCH  REQUESTED:          0  ISSUED:          0  USEFUL:          0  USELESS:          0
cpu0_DTLB AVERAGE MISS LATENCY: 16.2715 cycles
cpu0_ITLB TOTAL     ACCESS:    8000238  HIT:    8000221  MISS:         17
cpu0_ITLB LOAD      ACCESS:    8000238  HIT:    8000221  MISS:         17
cpu0_ITLB RFO       ACCESS:          0  HIT:          0  MISS:          0
cpu0_ITLB PREFETCH  ACCESS:          0  HIT:          0  MISS:          0
cpu0_ITLB WRITEBACK ACCESS:          0  HIT:          0  MISS:          0
cpu0_ITLB TRANSLATION ACCESS:          0  HIT:          0  MISS:          0
cpu0_ITLB PREFETCH  REQUESTED:          0  ISSUED:          0  USEFUL:          0  USELESS:          0
cpu0_ITLB AVERAGE MISS LATENCY: 310 cycles
cpu0_L1I TOTAL     ACCESS:     824217  HIT:     823444  MISS:        773
cpu0_L1I LOAD      ACCESS:     824217  HIT:     823444  MISS:        773
cpu0_L1I RFO       ACCESS:          0  HIT:          0  MISS:          0
cpu0_L1I PREFETCH  ACCESS:          0  HIT:          0  MISS:          0
cpu0_L1I WRITEBACK ACCESS:          0  HIT:          0  MISS:          0
cpu0_L1I TRANSLATION ACCESS:          0  HIT:          0  MISS:          0
cpu0_L1I PREFETCH  REQUESTED:          0  ISSUED:          0  USEFUL:          0  USELESS:          0
cpu0_L1I AVERAGE MISS LATENCY: 339.47 cycles
cpu0_STLB TOTAL     ACCESS:     962530  HIT:     806967  MISS:     155563
cpu0_STLB LOAD      ACCESS:     739703  HIT:     594965  MISS:     144738
cpu0_STLB RFO       ACCESS:     222827  HIT:     212002  MISS:      10825
cpu0_STLB PREFETCH  ACCESS:          0  HIT:          0  MISS:          0
cpu0_STLB WRITEBACK ACCESS:          0  HIT:          0  MISS:          0
cpu0_STLB TRANSLATION ACCESS:          0  HIT:          0  MISS:          0
cpu0_STLB PREFETCH  REQUESTED:          0  ISSUED:          0  USEFUL:          0  USELESS:          0
cpu0_STLB AVERAGE MISS LATENCY: 44.0935 cycles
cpu0_L1D TOTAL     ACCESS:   19253155  HIT:   13462579  MISS:    5790576
cpu0_L1D LOAD      ACCESS:   12677609  HIT:    7843018  MISS:    4834591
cpu0_L1D RFO       ACCESS:    6423898  HIT:    5473557  MISS:     950341
cpu0_L1D PREFETCH  ACCESS:          0  HIT:          0  MISS:          0
cpu0_L1D WRITEBACK ACCESS:          0  HIT:          0  MISS:          0
cpu0_L1D TRANSLATION ACCESS:     151648  HIT:     146004  MISS:       5644
cpu0_L1D PREFETCH  REQUESTED:          0  ISSUED:          0  USEFUL:          0  USELESS:          0
cpu0_L1D AVERAGE MISS LATENCY: 227.999 cycles
cpu0_L2C TOTAL     ACCESS:    8360920  HIT:    3854911  MISS:    4506009
cpu0_L2C LOAD      ACCESS:    4834952  HIT:    1131183  MISS:    3703769
cpu0_L2C RFO       ACCESS:     950269  HIT:     148920  MISS:     801349
cpu0_L2C PREFETCH  ACCESS:          0  HIT:          0  MISS:          0
cpu0_L2C WRITEBACK ACCESS:    2570055  HIT:    2569983  MISS:         72
cpu0_L2C TRANSLATION ACCESS:       5644  HIT:       4825  MISS:        819
cpu0_L2C PREFETCH  REQUESTED:          0  ISSUED:          0  USEFUL:          0  USELESS:          0
cpu0_L2C AVERAGE MISS LATENCY: 278.705 cycles
LLC TOTAL     ACCESS:    6406274  HIT:    3126254  MISS:    3280020
LLC LOAD      ACCESS:    3703751  HIT:    1413373  MISS:    2290378
LLC RFO       ACCESS:     801343  HIT:     275994  MISS:     525349
LLC PREFETCH  ACCESS:          0  HIT:          0  MISS:          0
LLC WRITEBACK ACCESS:    1900361  HIT:    1436551  MISS:     463810
LLC TRANSLATION ACCESS:        819  HIT:        336  MISS:        483
LLC PREFETCH  REQUESTED:          0  ISSUED:          0  USEFUL:          0  USELESS:          0
LLC AVERAGE MISS LATENCY: 353.488 cycles
OPTgen accesses: 77377
OPTgen hits: 37447
OPTgen hit rate: 48.3955



DRAM Statistics
 CHANNEL 0
 RQ ROW_BUFFER_HIT:     289694  ROW_BUFFER_MISS:    2524239
 DBUS AVG_CONGESTED_CYCLE:    3.95903
 WQ ROW_BUFFER_HIT:      47765  ROW_BUFFER_MISS:    1044202  FULL:     582327


CPU 0 Branch Prediction Accuracy: 93.3985% MPKI: 13.5305 Average ROB Occupancy at Mispredict: 47.9201
Branch type MPKI
BRANCH_DIRECT_JUMP: 0.00081
BRANCH_INDIRECT: 0.00022
BRANCH_CONDITIONAL: 13.5274
BRANCH_DIRECT_CALL: 0.00058
BRANCH_INDIRECT_CALL: 0.00056
BRANCH_RETURN: 0.00094

