
*** ChampSim Multicore Out-of-Order Simulator ***

Warmup Instructions: 10000000
Simulation Instructions: 100000000
Number of CPUs: 1
Off-chip DRAM Size: 4 GiB Channels: 1 Width: 64-bit Data Rate: 3200 MT/s

VirtualMemory physical capacity: 8588881920 num_ppages: 2096895
VirtualMemory page size: 4096 log2_page_size: 12

CPU 0 runs /datasets/cs240c-wi22-a00-public/data/Assignment2/soplex_66B.trace.xz
CPU 0 Bimodal branch predictor
Basic BTB sets: 1024 ways: 8 indirect buffer size: 4096 RAS size: 64
Initialize Hawkeye state
Heartbeat CPU 0 instructions: 10000004 cycles: 2688388 heartbeat IPC: 3.7197 cumulative IPC: 3.7197 (Simulation time: 0 hr 0 min 33 sec) 

Warmup complete CPU 0 instructions: 10000004 cycles: 2688388 (Simulation time: 0 hr 0 min 33 sec) 

Heartbeat CPU 0 instructions: 20000003 cycles: 27114817 heartbeat IPC: 0.409393 cumulative IPC: 0.409393 (Simulation time: 0 hr 1 min 55 sec) 
Heartbeat CPU 0 instructions: 30000001 cycles: 52857406 heartbeat IPC: 0.388461 cumulative IPC: 0.398652 (Simulation time: 0 hr 3 min 24 sec) 
Heartbeat CPU 0 instructions: 40000002 cycles: 78435509 heartbeat IPC: 0.390959 cumulative IPC: 0.396055 (Simulation time: 0 hr 4 min 50 sec) 
Heartbeat CPU 0 instructions: 50000002 cycles: 113340267 heartbeat IPC: 0.286494 cumulative IPC: 0.361494 (Simulation time: 0 hr 7 min 1 sec) 
Heartbeat CPU 0 instructions: 60000002 cycles: 147683035 heartbeat IPC: 0.291182 cumulative IPC: 0.34484 (Simulation time: 0 hr 9 min 2 sec) 
Heartbeat CPU 0 instructions: 70000001 cycles: 176428296 heartbeat IPC: 0.347883 cumulative IPC: 0.345344 (Simulation time: 0 hr 10 min 43 sec) 
Heartbeat CPU 0 instructions: 80000001 cycles: 204110267 heartbeat IPC: 0.361246 cumulative IPC: 0.347529 (Simulation time: 0 hr 12 min 24 sec) 
Heartbeat CPU 0 instructions: 90000003 cycles: 229074978 heartbeat IPC: 0.400566 cumulative IPC: 0.353378 (Simulation time: 0 hr 13 min 48 sec) 
Heartbeat CPU 0 instructions: 100000000 cycles: 254926141 heartbeat IPC: 0.38683 cumulative IPC: 0.356806 (Simulation time: 0 hr 15 min 13 sec) 
Heartbeat CPU 0 instructions: 110000004 cycles: 280632355 heartbeat IPC: 0.389011 cumulative IPC: 0.359785 (Simulation time: 0 hr 16 min 43 sec) 
Finished CPU 0 instructions: 100000000 cycles: 277943967 cumulative IPC: 0.359785 (Simulation time: 0 hr 16 min 43 sec) 

ChampSim completed all CPUs

Region of Interest Statistics

CPU 0 cumulative IPC: 0.359785 instructions: 100000000 cycles: 277943967
cpu0_DTLB TOTAL     ACCESS:   19892730  HIT:   19315211  MISS:     577519
cpu0_DTLB LOAD      ACCESS:   14828721  HIT:   14371425  MISS:     457296
cpu0_DTLB RFO       ACCESS:    5064009  HIT:    4943786  MISS:     120223
cpu0_DTLB PREFETCH  ACCESS:          0  HIT:          0  MISS:          0
cpu0_DTLB WRITEBACK ACCESS:          0  HIT:          0  MISS:          0
cpu0_DTLB TRANSLATION ACCESS:          0  HIT:          0  MISS:          0
cpu0_DTLB PREFETCH  REQUESTED:          0  ISSUED:          0  USEFUL:          0  USELESS:          0
cpu0_DTLB AVERAGE MISS LATENCY: 17.0621 cycles
cpu0_ITLB TOTAL     ACCESS:    8275463  HIT:    8275445  MISS:         18
cpu0_ITLB LOAD      ACCESS:    8275463  HIT:    8275445  MISS:         18
cpu0_ITLB RFO       ACCESS:          0  HIT:          0  MISS:          0
cpu0_ITLB PREFETCH  ACCESS:          0  HIT:          0  MISS:          0
cpu0_ITLB WRITEBACK ACCESS:          0  HIT:          0  MISS:          0
cpu0_ITLB TRANSLATION ACCESS:          0  HIT:          0  MISS:          0
cpu0_ITLB PREFETCH  REQUESTED:          0  ISSUED:          0  USEFUL:          0  USELESS:          0
cpu0_ITLB AVERAGE MISS LATENCY: 358.389 cycles
cpu0_L1I TOTAL     ACCESS:    1901999  HIT:    1901138  MISS:        861
cpu0_L1I LOAD      ACCESS:    1901999  HIT:    1901138  MISS:        861
cpu0_L1I RFO       ACCESS:          0  HIT:          0  MISS:          0
cpu0_L1I PREFETCH  ACCESS:          0  HIT:          0  MISS:          0
cpu0_L1I WRITEBACK ACCESS:          0  HIT:          0  MISS:          0
cpu0_L1I TRANSLATION ACCESS:          0  HIT:          0  MISS:          0
cpu0_L1I PREFETCH  REQUESTED:          0  ISSUED:          0  USEFUL:          0  USELESS:          0
cpu0_L1I AVERAGE MISS LATENCY: 267.05 cycles
cpu0_STLB TOTAL     ACCESS:     577537  HIT:     474616  MISS:     102921
cpu0_STLB LOAD      ACCESS:     457314  HIT:     362238  MISS:      95076
cpu0_STLB RFO       ACCESS:     120223  HIT:     112378  MISS:       7845
cpu0_STLB PREFETCH  ACCESS:          0  HIT:          0  MISS:          0
cpu0_STLB WRITEBACK ACCESS:          0  HIT:          0  MISS:          0
cpu0_STLB TRANSLATION ACCESS:          0  HIT:          0  MISS:          0
cpu0_STLB PREFETCH  REQUESTED:          0  ISSUED:          0  USEFUL:          0  USELESS:          0
cpu0_STLB AVERAGE MISS LATENCY: 44.7132 cycles
cpu0_L1D TOTAL     ACCESS:   17122017  HIT:   12804993  MISS:    4317024
cpu0_L1D LOAD      ACCESS:   11119266  HIT:    7520964  MISS:    3598302
cpu0_L1D RFO       ACCESS:    5902727  HIT:    5186648  MISS:     716079
cpu0_L1D PREFETCH  ACCESS:          0  HIT:          0  MISS:          0
cpu0_L1D WRITEBACK ACCESS:          0  HIT:          0  MISS:          0
cpu0_L1D TRANSLATION ACCESS:     100024  HIT:      97381  MISS:       2643
cpu0_L1D PREFETCH  REQUESTED:          0  ISSUED:          0  USEFUL:          0  USELESS:          0
cpu0_L1D AVERAGE MISS LATENCY: 227.357 cycles
cpu0_L2C TOTAL     ACCESS:    6105343  HIT:    2608012  MISS:    3497331
cpu0_L2C LOAD      ACCESS:    3599025  HIT:     717325  MISS:    2881700
cpu0_L2C RFO       ACCESS:     716015  HIT:     101649  MISS:     614366
cpu0_L2C PREFETCH  ACCESS:          0  HIT:          0  MISS:          0
cpu0_L2C WRITEBACK ACCESS:    1787660  HIT:    1787120  MISS:        540
cpu0_L2C TRANSLATION ACCESS:       2643  HIT:       1918  MISS:        725
cpu0_L2C PREFETCH  REQUESTED:          0  ISSUED:          0  USEFUL:          0  USELESS:          0
cpu0_L2C AVERAGE MISS LATENCY: 266.942 cycles
LLC TOTAL     ACCESS:    4876929  HIT:    2320711  MISS:    2556218
LLC LOAD      ACCESS:    2881685  HIT:    1176537  MISS:    1705148
LLC RFO       ACCESS:     614366  HIT:     230032  MISS:     384334
LLC PREFETCH  ACCESS:          0  HIT:          0  MISS:          0
LLC WRITEBACK ACCESS:    1380153  HIT:     913786  MISS:     466367
LLC TRANSLATION ACCESS:        725  HIT:        356  MISS:        369
LLC PREFETCH  REQUESTED:          0  ISSUED:          0  USEFUL:          0  USELESS:          0
LLC AVERAGE MISS LATENCY: 335.26 cycles
OPTgen accesses: 59966
OPTgen hits: 29765
OPTgen hit rate: 49.6365



DRAM Statistics
 CHANNEL 0
 RQ ROW_BUFFER_HIT:     310960  ROW_BUFFER_MISS:    1777247
 DBUS AVG_CONGESTED_CYCLE:    3.95657
 WQ ROW_BUFFER_HIT:      65916  ROW_BUFFER_MISS:     802081  FULL:     796707


CPU 0 Branch Prediction Accuracy: 91.9788% MPKI: 17.5693 Average ROB Occupancy at Mispredict: 27.7709
Branch type MPKI
BRANCH_DIRECT_JUMP: 0.00093
BRANCH_INDIRECT: 0.00028
BRANCH_CONDITIONAL: 17.5659
BRANCH_DIRECT_CALL: 0.00064
BRANCH_INDIRECT_CALL: 0.00043
BRANCH_RETURN: 0.00108

