
*** ChampSim Multicore Out-of-Order Simulator ***

Warmup Instructions: 10000000
Simulation Instructions: 100000000
Number of CPUs: 1
Off-chip DRAM Size: 4 GiB Channels: 1 Width: 64-bit Data Rate: 3200 MT/s

VirtualMemory physical capacity: 8588881920 num_ppages: 2096895
VirtualMemory page size: 4096 log2_page_size: 12

CPU 0 runs /datasets/cs240c-wi22-a00-public/data/Assignment2/tonto_422B.trace.xz
CPU 0 Bimodal branch predictor
Basic BTB sets: 1024 ways: 8 indirect buffer size: 4096 RAS size: 64
Initialize Hawkeye state
Heartbeat CPU 0 instructions: 10000003 cycles: 2501969 heartbeat IPC: 3.99685 cumulative IPC: 3.99685 (Simulation time: 0 hr 0 min 31 sec) 

Warmup complete CPU 0 instructions: 10000003 cycles: 2501969 (Simulation time: 0 hr 0 min 31 sec) 

Heartbeat CPU 0 instructions: 20000000 cycles: 8975831 heartbeat IPC: 1.54467 cumulative IPC: 1.54467 (Simulation time: 0 hr 1 min 14 sec) 
Heartbeat CPU 0 instructions: 30000000 cycles: 15445583 heartbeat IPC: 1.54565 cumulative IPC: 1.54516 (Simulation time: 0 hr 1 min 58 sec) 
Heartbeat CPU 0 instructions: 40000002 cycles: 22042140 heartbeat IPC: 1.51594 cumulative IPC: 1.5353 (Simulation time: 0 hr 2 min 41 sec) 
Heartbeat CPU 0 instructions: 50000003 cycles: 29534818 heartbeat IPC: 1.33464 cumulative IPC: 1.47968 (Simulation time: 0 hr 3 min 29 sec) 
Heartbeat CPU 0 instructions: 60000002 cycles: 37058306 heartbeat IPC: 1.32917 cumulative IPC: 1.44691 (Simulation time: 0 hr 4 min 25 sec) 
Heartbeat CPU 0 instructions: 70000001 cycles: 43842125 heartbeat IPC: 1.4741 cumulative IPC: 1.45137 (Simulation time: 0 hr 5 min 17 sec) 
Heartbeat CPU 0 instructions: 80000000 cycles: 50417340 heartbeat IPC: 1.52086 cumulative IPC: 1.46091 (Simulation time: 0 hr 6 min 9 sec) 
Heartbeat CPU 0 instructions: 90000000 cycles: 57341796 heartbeat IPC: 1.44416 cumulative IPC: 1.45879 (Simulation time: 0 hr 7 min 2 sec) 
Heartbeat CPU 0 instructions: 100000002 cycles: 64047500 heartbeat IPC: 1.49127 cumulative IPC: 1.46233 (Simulation time: 0 hr 7 min 52 sec) 
Heartbeat CPU 0 instructions: 110000001 cycles: 70913758 heartbeat IPC: 1.4564 cumulative IPC: 1.46174 (Simulation time: 0 hr 8 min 44 sec) 
Finished CPU 0 instructions: 100000003 cycles: 68411790 cumulative IPC: 1.46174 (Simulation time: 0 hr 8 min 44 sec) 

ChampSim completed all CPUs

Region of Interest Statistics

CPU 0 cumulative IPC: 1.46174 instructions: 100000003 cycles: 68411790
cpu0_DTLB TOTAL     ACCESS:   12819551  HIT:   12783282  MISS:      36269
cpu0_DTLB LOAD      ACCESS:    9454758  HIT:    9428324  MISS:      26434
cpu0_DTLB RFO       ACCESS:    3364793  HIT:    3354958  MISS:       9835
cpu0_DTLB PREFETCH  ACCESS:          0  HIT:          0  MISS:          0
cpu0_DTLB WRITEBACK ACCESS:          0  HIT:          0  MISS:          0
cpu0_DTLB TRANSLATION ACCESS:          0  HIT:          0  MISS:          0
cpu0_DTLB PREFETCH  REQUESTED:          0  ISSUED:          0  USEFUL:          0  USELESS:          0
cpu0_DTLB AVERAGE MISS LATENCY: 13.43 cycles
cpu0_ITLB TOTAL     ACCESS:    4153333  HIT:    4153302  MISS:         31
cpu0_ITLB LOAD      ACCESS:    4153333  HIT:    4153302  MISS:         31
cpu0_ITLB RFO       ACCESS:          0  HIT:          0  MISS:          0
cpu0_ITLB PREFETCH  ACCESS:          0  HIT:          0  MISS:          0
cpu0_ITLB WRITEBACK ACCESS:          0  HIT:          0  MISS:          0
cpu0_ITLB TRANSLATION ACCESS:          0  HIT:          0  MISS:          0
cpu0_ITLB PREFETCH  REQUESTED:          0  ISSUED:          0  USEFUL:          0  USELESS:          0
cpu0_ITLB AVERAGE MISS LATENCY: 211.677 cycles
cpu0_L1I TOTAL     ACCESS:    6343235  HIT:    6342119  MISS:       1116
cpu0_L1I LOAD      ACCESS:    6343235  HIT:    6342119  MISS:       1116
cpu0_L1I RFO       ACCESS:          0  HIT:          0  MISS:          0
cpu0_L1I PREFETCH  ACCESS:          0  HIT:          0  MISS:          0
cpu0_L1I WRITEBACK ACCESS:          0  HIT:          0  MISS:          0
cpu0_L1I TRANSLATION ACCESS:          0  HIT:          0  MISS:          0
cpu0_L1I PREFETCH  REQUESTED:          0  ISSUED:          0  USEFUL:          0  USELESS:          0
cpu0_L1I AVERAGE MISS LATENCY: 172.791 cycles
cpu0_STLB TOTAL     ACCESS:      36300  HIT:      35638  MISS:        662
cpu0_STLB LOAD      ACCESS:      26465  HIT:      26419  MISS:         46
cpu0_STLB RFO       ACCESS:       9835  HIT:       9219  MISS:        616
cpu0_STLB PREFETCH  ACCESS:          0  HIT:          0  MISS:          0
cpu0_STLB WRITEBACK ACCESS:          0  HIT:          0  MISS:          0
cpu0_STLB TRANSLATION ACCESS:          0  HIT:          0  MISS:          0
cpu0_STLB PREFETCH  REQUESTED:          0  ISSUED:          0  USEFUL:          0  USELESS:          0
cpu0_STLB AVERAGE MISS LATENCY: 251.947 cycles
cpu0_L1D TOTAL     ACCESS:   13845189  HIT:   12630856  MISS:    1214333
cpu0_L1D LOAD      ACCESS:    7757625  HIT:    6960670  MISS:     796955
cpu0_L1D RFO       ACCESS:    6086905  HIT:    5669540  MISS:     417365
cpu0_L1D PREFETCH  ACCESS:          0  HIT:          0  MISS:          0
cpu0_L1D WRITEBACK ACCESS:          0  HIT:          0  MISS:          0
cpu0_L1D TRANSLATION ACCESS:        659  HIT:        646  MISS:         13
cpu0_L1D PREFETCH  REQUESTED:          0  ISSUED:          0  USEFUL:          0  USELESS:          0
cpu0_L1D AVERAGE MISS LATENCY: 82.9908 cycles
cpu0_L2C TOTAL     ACCESS:    1652887  HIT:     826804  MISS:     826083
cpu0_L2C LOAD      ACCESS:     798071  HIT:     213862  MISS:     584209
cpu0_L2C RFO       ACCESS:     417365  HIT:     175533  MISS:     241832
cpu0_L2C PREFETCH  ACCESS:          0  HIT:          0  MISS:          0
cpu0_L2C WRITEBACK ACCESS:     437438  HIT:     437405  MISS:         33
cpu0_L2C TRANSLATION ACCESS:         13  HIT:          4  MISS:          9
cpu0_L2C PREFETCH  REQUESTED:          0  ISSUED:          0  USEFUL:          0  USELESS:          0
cpu0_L2C AVERAGE MISS LATENCY: 106.003 cycles
LLC TOTAL     ACCESS:    1190837  HIT:     926471  MISS:     264366
LLC LOAD      ACCESS:     584157  HIT:     437679  MISS:     146478
LLC RFO       ACCESS:     241832  HIT:     179113  MISS:      62719
LLC PREFETCH  ACCESS:          0  HIT:          0  MISS:          0
LLC WRITEBACK ACCESS:     364839  HIT:     309672  MISS:      55167
LLC TRANSLATION ACCESS:          9  HIT:          7  MISS:          2
LLC PREFETCH  REQUESTED:          0  ISSUED:          0  USEFUL:          0  USELESS:          0
LLC AVERAGE MISS LATENCY: 265.457 cycles
OPTgen accesses: 13631
OPTgen hits: 10913
OPTgen hit rate: 80.0602



DRAM Statistics
 CHANNEL 0
 RQ ROW_BUFFER_HIT:      34694  ROW_BUFFER_MISS:     174036
 DBUS AVG_CONGESTED_CYCLE:    3.96884
 WQ ROW_BUFFER_HIT:      21741  ROW_BUFFER_MISS:     129192  FULL:      27089


CPU 0 Branch Prediction Accuracy: 95.8021% MPKI: 4.07385 Average ROB Occupancy at Mispredict: 71.5677
Branch type MPKI
BRANCH_DIRECT_JUMP: 0.00041
BRANCH_INDIRECT: 5e-05
BRANCH_CONDITIONAL: 4.07099
BRANCH_DIRECT_CALL: 0.00126
BRANCH_INDIRECT_CALL: 0
BRANCH_RETURN: 0.00114

