
*** ChampSim Multicore Out-of-Order Simulator ***

Warmup Instructions: 10000000
Simulation Instructions: 100000000
Number of CPUs: 1
Off-chip DRAM Size: 4 GiB Channels: 1 Width: 64-bit Data Rate: 3200 MT/s

VirtualMemory physical capacity: 8588881920 num_ppages: 2096895
VirtualMemory page size: 4096 log2_page_size: 12

CPU 0 runs /datasets/cs240c-wi22-a00-public/data/Assignment2/wrf_1228B.trace.xz
CPU 0 Bimodal branch predictor
Basic BTB sets: 1024 ways: 8 indirect buffer size: 4096 RAS size: 64
Initialize Hawkeye state
Heartbeat CPU 0 instructions: 10000001 cycles: 3904471 heartbeat IPC: 2.56117 cumulative IPC: 2.56117 (Simulation time: 0 hr 0 min 59 sec) 

Warmup complete CPU 0 instructions: 10000001 cycles: 3904471 (Simulation time: 0 hr 0 min 59 sec) 

Heartbeat CPU 0 instructions: 20000001 cycles: 12270721 heartbeat IPC: 1.19528 cumulative IPC: 1.19528 (Simulation time: 0 hr 2 min 17 sec) 
Heartbeat CPU 0 instructions: 30000004 cycles: 24804371 heartbeat IPC: 0.797852 cumulative IPC: 0.956942 (Simulation time: 0 hr 3 min 59 sec) 
Heartbeat CPU 0 instructions: 40000000 cycles: 38038345 heartbeat IPC: 0.755631 cumulative IPC: 0.878892 (Simulation time: 0 hr 5 min 51 sec) 
Heartbeat CPU 0 instructions: 50000001 cycles: 47071984 heartbeat IPC: 1.10697 cumulative IPC: 0.926623 (Simulation time: 0 hr 7 min 14 sec) 
Heartbeat CPU 0 instructions: 60000003 cycles: 57277249 heartbeat IPC: 0.979887 cumulative IPC: 0.936807 (Simulation time: 0 hr 8 min 46 sec) 
Heartbeat CPU 0 instructions: 70000001 cycles: 68601800 heartbeat IPC: 0.883037 cumulative IPC: 0.927395 (Simulation time: 0 hr 10 min 11 sec) 
Heartbeat CPU 0 instructions: 80000004 cycles: 78311793 heartbeat IPC: 1.02987 cumulative IPC: 0.940768 (Simulation time: 0 hr 11 min 14 sec) 
Heartbeat CPU 0 instructions: 90000001 cycles: 87996798 heartbeat IPC: 1.03252 cumulative IPC: 0.951335 (Simulation time: 0 hr 12 min 18 sec) 
Heartbeat CPU 0 instructions: 100000002 cycles: 97675138 heartbeat IPC: 1.03324 cumulative IPC: 0.959788 (Simulation time: 0 hr 13 min 21 sec) 
Heartbeat CPU 0 instructions: 110000000 cycles: 107345301 heartbeat IPC: 1.03411 cumulative IPC: 0.966736 (Simulation time: 0 hr 14 min 23 sec) 
Finished CPU 0 instructions: 100000004 cycles: 103440831 cumulative IPC: 0.966736 (Simulation time: 0 hr 14 min 23 sec) 

ChampSim completed all CPUs

Region of Interest Statistics

CPU 0 cumulative IPC: 0.966736 instructions: 100000004 cycles: 103440831
cpu0_DTLB TOTAL     ACCESS:   19664778  HIT:   19568540  MISS:      96238
cpu0_DTLB LOAD      ACCESS:   17654084  HIT:   17572154  MISS:      81930
cpu0_DTLB RFO       ACCESS:    2010694  HIT:    1996386  MISS:      14308
cpu0_DTLB PREFETCH  ACCESS:          0  HIT:          0  MISS:          0
cpu0_DTLB WRITEBACK ACCESS:          0  HIT:          0  MISS:          0
cpu0_DTLB TRANSLATION ACCESS:          0  HIT:          0  MISS:          0
cpu0_DTLB PREFETCH  REQUESTED:          0  ISSUED:          0  USEFUL:          0  USELESS:          0
cpu0_DTLB AVERAGE MISS LATENCY: 20.0611 cycles
cpu0_ITLB TOTAL     ACCESS:    4204005  HIT:    4203993  MISS:         12
cpu0_ITLB LOAD      ACCESS:    4204005  HIT:    4203993  MISS:         12
cpu0_ITLB RFO       ACCESS:          0  HIT:          0  MISS:          0
cpu0_ITLB PREFETCH  ACCESS:          0  HIT:          0  MISS:          0
cpu0_ITLB WRITEBACK ACCESS:          0  HIT:          0  MISS:          0
cpu0_ITLB TRANSLATION ACCESS:          0  HIT:          0  MISS:          0
cpu0_ITLB PREFETCH  REQUESTED:          0  ISSUED:          0  USEFUL:          0  USELESS:          0
cpu0_ITLB AVERAGE MISS LATENCY: 232.25 cycles
cpu0_L1I TOTAL     ACCESS:    6672075  HIT:    6671327  MISS:        748
cpu0_L1I LOAD      ACCESS:    6672075  HIT:    6671327  MISS:        748
cpu0_L1I RFO       ACCESS:          0  HIT:          0  MISS:          0
cpu0_L1I PREFETCH  ACCESS:          0  HIT:          0  MISS:          0
cpu0_L1I WRITEBACK ACCESS:          0  HIT:          0  MISS:          0
cpu0_L1I TRANSLATION ACCESS:          0  HIT:          0  MISS:          0
cpu0_L1I PREFETCH  REQUESTED:          0  ISSUED:          0  USEFUL:          0  USELESS:          0
cpu0_L1I AVERAGE MISS LATENCY: 372.872 cycles
cpu0_STLB TOTAL     ACCESS:      96250  HIT:      86696  MISS:       9554
cpu0_STLB LOAD      ACCESS:      81942  HIT:      75034  MISS:       6908
cpu0_STLB RFO       ACCESS:      14308  HIT:      11662  MISS:       2646
cpu0_STLB PREFETCH  ACCESS:          0  HIT:          0  MISS:          0
cpu0_STLB WRITEBACK ACCESS:          0  HIT:          0  MISS:          0
cpu0_STLB TRANSLATION ACCESS:          0  HIT:          0  MISS:          0
cpu0_STLB PREFETCH  REQUESTED:          0  ISSUED:          0  USEFUL:          0  USELESS:          0
cpu0_STLB AVERAGE MISS LATENCY: 111.681 cycles
cpu0_L1D TOTAL     ACCESS:   18880112  HIT:   17521722  MISS:    1358390
cpu0_L1D LOAD      ACCESS:   14827857  HIT:   13728817  MISS:    1099040
cpu0_L1D RFO       ACCESS:    4042711  HIT:    3784147  MISS:     258564
cpu0_L1D PREFETCH  ACCESS:          0  HIT:          0  MISS:          0
cpu0_L1D WRITEBACK ACCESS:          0  HIT:          0  MISS:          0
cpu0_L1D TRANSLATION ACCESS:       9544  HIT:       8758  MISS:        786
cpu0_L1D PREFETCH  REQUESTED:          0  ISSUED:          0  USEFUL:          0  USELESS:          0
cpu0_L1D AVERAGE MISS LATENCY: 213.193 cycles
cpu0_L2C TOTAL     ACCESS:    1836337  HIT:     802899  MISS:    1033438
cpu0_L2C LOAD      ACCESS:    1099769  HIT:     287147  MISS:     812622
cpu0_L2C RFO       ACCESS:     258561  HIT:      39543  MISS:     219018
cpu0_L2C PREFETCH  ACCESS:          0  HIT:          0  MISS:          0
cpu0_L2C WRITEBACK ACCESS:     477221  HIT:     475536  MISS:       1685
cpu0_L2C TRANSLATION ACCESS:        786  HIT:        673  MISS:        113
cpu0_L2C PREFETCH  REQUESTED:          0  ISSUED:          0  USEFUL:          0  USELESS:          0
cpu0_L2C AVERAGE MISS LATENCY: 266.01 cycles
LLC TOTAL     ACCESS:    1463799  HIT:     380914  MISS:    1082885
LLC LOAD      ACCESS:     812622  HIT:     145922  MISS:     666700
LLC RFO       ACCESS:     219018  HIT:      46086  MISS:     172932
LLC PREFETCH  ACCESS:          0  HIT:          0  MISS:          0
LLC WRITEBACK ACCESS:     432046  HIT:     188871  MISS:     243175
LLC TRANSLATION ACCESS:        113  HIT:         35  MISS:         78
LLC PREFETCH  REQUESTED:          0  ISSUED:          0  USEFUL:          0  USELESS:          0
LLC AVERAGE MISS LATENCY: 233.853 cycles
OPTgen accesses: 20219
OPTgen hits: 5852
OPTgen hit rate: 28.9431



DRAM Statistics
 CHANNEL 0
 RQ ROW_BUFFER_HIT:      92542  ROW_BUFFER_MISS:     746905
 DBUS AVG_CONGESTED_CYCLE:    3.93101
 WQ ROW_BUFFER_HIT:      31811  ROW_BUFFER_MISS:     291979  FULL:          0


CPU 0 Branch Prediction Accuracy: 97.4481% MPKI: 2.04611 Average ROB Occupancy at Mispredict: 260.61
Branch type MPKI
BRANCH_DIRECT_JUMP: 0.00028
BRANCH_INDIRECT: 0
BRANCH_CONDITIONAL: 2.0456
BRANCH_DIRECT_CALL: 0.00011
BRANCH_INDIRECT_CALL: 0
BRANCH_RETURN: 0.00012

