
*** ChampSim Multicore Out-of-Order Simulator ***

Warmup Instructions: 10000000
Simulation Instructions: 100000000
Number of CPUs: 1
Off-chip DRAM Size: 4 GiB Channels: 1 Width: 64-bit Data Rate: 3200 MT/s

VirtualMemory physical capacity: 8588881920 num_ppages: 2096895
VirtualMemory page size: 4096 log2_page_size: 12

CPU 0 runs /datasets/cs240c-wi22-a00-public/data/Assignment2/xalancbmk_748B.trace.xz
CPU 0 Bimodal branch predictor
Basic BTB sets: 1024 ways: 8 indirect buffer size: 4096 RAS size: 64
Initialize Hawkeye state
Heartbeat CPU 0 instructions: 10000002 cycles: 2655103 heartbeat IPC: 3.76633 cumulative IPC: 3.76633 (Simulation time: 0 hr 0 min 38 sec) 

Warmup complete CPU 0 instructions: 10000002 cycles: 2655103 (Simulation time: 0 hr 0 min 38 sec) 

Heartbeat CPU 0 instructions: 20000001 cycles: 11807137 heartbeat IPC: 1.09265 cumulative IPC: 1.09265 (Simulation time: 0 hr 1 min 28 sec) 
Heartbeat CPU 0 instructions: 30000002 cycles: 20743856 heartbeat IPC: 1.11898 cumulative IPC: 1.10566 (Simulation time: 0 hr 2 min 16 sec) 
Heartbeat CPU 0 instructions: 40000002 cycles: 30133091 heartbeat IPC: 1.06505 cumulative IPC: 1.09178 (Simulation time: 0 hr 3 min 7 sec) 
Heartbeat CPU 0 instructions: 50000001 cycles: 38652077 heartbeat IPC: 1.17385 cumulative IPC: 1.1112 (Simulation time: 0 hr 3 min 59 sec) 
Heartbeat CPU 0 instructions: 60000003 cycles: 45819738 heartbeat IPC: 1.39516 cumulative IPC: 1.15836 (Simulation time: 0 hr 4 min 53 sec) 
Heartbeat CPU 0 instructions: 70000000 cycles: 51713202 heartbeat IPC: 1.69679 cumulative IPC: 1.22304 (Simulation time: 0 hr 5 min 49 sec) 
Heartbeat CPU 0 instructions: 80000003 cycles: 62091698 heartbeat IPC: 0.963531 cumulative IPC: 1.17773 (Simulation time: 0 hr 6 min 42 sec) 
Heartbeat CPU 0 instructions: 90000003 cycles: 70679136 heartbeat IPC: 1.16449 cumulative IPC: 1.17605 (Simulation time: 0 hr 7 min 32 sec) 
Heartbeat CPU 0 instructions: 100000003 cycles: 78631114 heartbeat IPC: 1.25755 cumulative IPC: 1.18458 (Simulation time: 0 hr 8 min 22 sec) 
Heartbeat CPU 0 instructions: 110000001 cycles: 85886492 heartbeat IPC: 1.37829 cumulative IPC: 1.20147 (Simulation time: 0 hr 9 min 15 sec) 
Finished CPU 0 instructions: 100000004 cycles: 83231390 cumulative IPC: 1.20147 (Simulation time: 0 hr 9 min 15 sec) 

ChampSim completed all CPUs

Region of Interest Statistics

CPU 0 cumulative IPC: 1.20147 instructions: 100000004 cycles: 83231390
cpu0_DTLB TOTAL     ACCESS:   20939278  HIT:   19924027  MISS:    1015251
cpu0_DTLB LOAD      ACCESS:   15326255  HIT:   14391445  MISS:     934810
cpu0_DTLB RFO       ACCESS:    5613023  HIT:    5532582  MISS:      80441
cpu0_DTLB PREFETCH  ACCESS:          0  HIT:          0  MISS:          0
cpu0_DTLB WRITEBACK ACCESS:          0  HIT:          0  MISS:          0
cpu0_DTLB TRANSLATION ACCESS:          0  HIT:          0  MISS:          0
cpu0_DTLB PREFETCH  REQUESTED:          0  ISSUED:          0  USEFUL:          0  USELESS:          0
cpu0_DTLB AVERAGE MISS LATENCY: 12.6484 cycles
cpu0_ITLB TOTAL     ACCESS:    8533605  HIT:    8418570  MISS:     115035
cpu0_ITLB LOAD      ACCESS:    8533605  HIT:    8418570  MISS:     115035
cpu0_ITLB RFO       ACCESS:          0  HIT:          0  MISS:          0
cpu0_ITLB PREFETCH  ACCESS:          0  HIT:          0  MISS:          0
cpu0_ITLB WRITEBACK ACCESS:          0  HIT:          0  MISS:          0
cpu0_ITLB TRANSLATION ACCESS:          0  HIT:          0  MISS:          0
cpu0_ITLB PREFETCH  REQUESTED:          0  ISSUED:          0  USEFUL:          0  USELESS:          0
cpu0_ITLB AVERAGE MISS LATENCY: 9.08127 cycles
cpu0_L1I TOTAL     ACCESS:    5572271  HIT:    5474263  MISS:      98008
cpu0_L1I LOAD      ACCESS:    5572271  HIT:    5474263  MISS:      98008
cpu0_L1I RFO       ACCESS:          0  HIT:          0  MISS:          0
cpu0_L1I PREFETCH  ACCESS:          0  HIT:          0  MISS:          0
cpu0_L1I WRITEBACK ACCESS:          0  HIT:          0  MISS:          0
cpu0_L1I TRANSLATION ACCESS:          0  HIT:          0  MISS:          0
cpu0_L1I PREFETCH  REQUESTED:          0  ISSUED:          0  USEFUL:          0  USELESS:          0
cpu0_L1I AVERAGE MISS LATENCY: 15.5311 cycles
cpu0_STLB TOTAL     ACCESS:    1130286  HIT:    1056274  MISS:      74012
cpu0_STLB LOAD      ACCESS:    1049845  HIT:    1003758  MISS:      46087
cpu0_STLB RFO       ACCESS:      80441  HIT:      52516  MISS:      27925
cpu0_STLB PREFETCH  ACCESS:          0  HIT:          0  MISS:          0
cpu0_STLB WRITEBACK ACCESS:          0  HIT:          0  MISS:          0
cpu0_STLB TRANSLATION ACCESS:          0  HIT:          0  MISS:          0
cpu0_STLB PREFETCH  REQUESTED:          0  ISSUED:          0  USEFUL:          0  USELESS:          0
cpu0_STLB AVERAGE MISS LATENCY: 50.0172 cycles
cpu0_L1D TOTAL     ACCESS:   22870145  HIT:   21395519  MISS:    1474626
cpu0_L1D LOAD      ACCESS:   13616252  HIT:   12402851  MISS:    1213401
cpu0_L1D RFO       ACCESS:    9186985  HIT:    8940739  MISS:     246246
cpu0_L1D PREFETCH  ACCESS:          0  HIT:          0  MISS:          0
cpu0_L1D WRITEBACK ACCESS:          0  HIT:          0  MISS:          0
cpu0_L1D TRANSLATION ACCESS:      66908  HIT:      51929  MISS:      14979
cpu0_L1D PREFETCH  REQUESTED:          0  ISSUED:          0  USEFUL:          0  USELESS:          0
cpu0_L1D AVERAGE MISS LATENCY: 46.1172 cycles
cpu0_L2C TOTAL     ACCESS:    1931918  HIT:    1588141  MISS:     343777
cpu0_L2C LOAD      ACCESS:    1311371  HIT:    1191320  MISS:     120051
cpu0_L2C RFO       ACCESS:     246233  HIT:      23094  MISS:     223139
cpu0_L2C PREFETCH  ACCESS:          0  HIT:          0  MISS:          0
cpu0_L2C WRITEBACK ACCESS:     359335  HIT:     358848  MISS:        487
cpu0_L2C TRANSLATION ACCESS:      14979  HIT:      14879  MISS:        100
cpu0_L2C PREFETCH  REQUESTED:          0  ISSUED:          0  USEFUL:          0  USELESS:          0
cpu0_L2C AVERAGE MISS LATENCY: 151.346 cycles
LLC TOTAL     ACCESS:     632511  HIT:     231275  MISS:     401236
LLC LOAD      ACCESS:     120051  HIT:      68199  MISS:      51852
LLC RFO       ACCESS:     223139  HIT:      34317  MISS:     188822
LLC PREFETCH  ACCESS:          0  HIT:          0  MISS:          0
LLC WRITEBACK ACCESS:     289221  HIT:     128696  MISS:     160525
LLC TRANSLATION ACCESS:        100  HIT:         63  MISS:         37
LLC PREFETCH  REQUESTED:          0  ISSUED:          0  USEFUL:          0  USELESS:          0
LLC AVERAGE MISS LATENCY: 111.705 cycles
OPTgen accesses: 6079
OPTgen hits: 2182
OPTgen hit rate: 35.8941



DRAM Statistics
 CHANNEL 0
 RQ ROW_BUFFER_HIT:      98073  ROW_BUFFER_MISS:     142632
 DBUS AVG_CONGESTED_CYCLE:    3.94646
 WQ ROW_BUFFER_HIT:      17928  ROW_BUFFER_MISS:     196945  FULL:          0


CPU 0 Branch Prediction Accuracy: 96.4988% MPKI: 10.3974 Average ROB Occupancy at Mispredict: 40.2312
Branch type MPKI
BRANCH_DIRECT_JUMP: 0.0002
BRANCH_INDIRECT: 0.35495
BRANCH_CONDITIONAL: 7.96079
BRANCH_DIRECT_CALL: 9e-05
BRANCH_INDIRECT_CALL: 0.45393
BRANCH_RETURN: 1.62746

