
*** ChampSim Multicore Out-of-Order Simulator ***

Warmup Instructions: 10000000
Simulation Instructions: 100000000
Number of CPUs: 1
Off-chip DRAM Size: 4 GiB Channels: 1 Width: 64-bit Data Rate: 3200 MT/s

VirtualMemory physical capacity: 8588881920 num_ppages: 2096895
VirtualMemory page size: 4096 log2_page_size: 12

CPU 0 runs /datasets/cs240c-wi22-a00-public/data/Assignment2/xalancbmk_99B.trace.xz
CPU 0 Bimodal branch predictor
Basic BTB sets: 1024 ways: 8 indirect buffer size: 4096 RAS size: 64
Initialize Hawkeye state
Heartbeat CPU 0 instructions: 10000001 cycles: 3058722 heartbeat IPC: 3.26934 cumulative IPC: 3.26934 (Simulation time: 0 hr 0 min 45 sec) 

Warmup complete CPU 0 instructions: 10000001 cycles: 3058722 (Simulation time: 0 hr 0 min 45 sec) 

Heartbeat CPU 0 instructions: 20000003 cycles: 37807963 heartbeat IPC: 0.287776 cumulative IPC: 0.287776 (Simulation time: 0 hr 1 min 57 sec) 
Heartbeat CPU 0 instructions: 30000000 cycles: 77256646 heartbeat IPC: 0.253494 cumulative IPC: 0.269549 (Simulation time: 0 hr 3 min 15 sec) 
Heartbeat CPU 0 instructions: 40000000 cycles: 113361121 heartbeat IPC: 0.276974 cumulative IPC: 0.27198 (Simulation time: 0 hr 4 min 28 sec) 
Heartbeat CPU 0 instructions: 50000002 cycles: 149940354 heartbeat IPC: 0.273379 cumulative IPC: 0.272328 (Simulation time: 0 hr 5 min 41 sec) 
Heartbeat CPU 0 instructions: 60000002 cycles: 187428000 heartbeat IPC: 0.266755 cumulative IPC: 0.271195 (Simulation time: 0 hr 6 min 52 sec) 
Heartbeat CPU 0 instructions: 70000002 cycles: 223469758 heartbeat IPC: 0.277456 cumulative IPC: 0.272219 (Simulation time: 0 hr 8 min 3 sec) 
Heartbeat CPU 0 instructions: 80000001 cycles: 259889367 heartbeat IPC: 0.274577 cumulative IPC: 0.272553 (Simulation time: 0 hr 9 min 13 sec) 
Heartbeat CPU 0 instructions: 90000000 cycles: 298805418 heartbeat IPC: 0.256963 cumulative IPC: 0.270502 (Simulation time: 0 hr 10 min 28 sec) 
Heartbeat CPU 0 instructions: 100000000 cycles: 333436278 heartbeat IPC: 0.28876 cumulative IPC: 0.272416 (Simulation time: 0 hr 11 min 36 sec) 
Heartbeat CPU 0 instructions: 110000001 cycles: 367676672 heartbeat IPC: 0.292053 cumulative IPC: 0.27426 (Simulation time: 0 hr 12 min 42 sec) 
Finished CPU 0 instructions: 100000000 cycles: 364617950 cumulative IPC: 0.27426 (Simulation time: 0 hr 12 min 42 sec) 

ChampSim completed all CPUs

Region of Interest Statistics

CPU 0 cumulative IPC: 0.27426 instructions: 100000000 cycles: 364617950
cpu0_DTLB TOTAL     ACCESS:   22803221  HIT:   22242556  MISS:     560665
cpu0_DTLB LOAD      ACCESS:   21423123  HIT:   20872032  MISS:     551091
cpu0_DTLB RFO       ACCESS:    1380098  HIT:    1370524  MISS:       9574
cpu0_DTLB PREFETCH  ACCESS:          0  HIT:          0  MISS:          0
cpu0_DTLB WRITEBACK ACCESS:          0  HIT:          0  MISS:          0
cpu0_DTLB TRANSLATION ACCESS:          0  HIT:          0  MISS:          0
cpu0_DTLB PREFETCH  REQUESTED:          0  ISSUED:          0  USEFUL:          0  USELESS:          0
cpu0_DTLB AVERAGE MISS LATENCY: 37.5977 cycles
cpu0_ITLB TOTAL     ACCESS:   13331674  HIT:   13304316  MISS:      27358
cpu0_ITLB LOAD      ACCESS:   13331674  HIT:   13304316  MISS:      27358
cpu0_ITLB RFO       ACCESS:          0  HIT:          0  MISS:          0
cpu0_ITLB PREFETCH  ACCESS:          0  HIT:          0  MISS:          0
cpu0_ITLB WRITEBACK ACCESS:          0  HIT:          0  MISS:          0
cpu0_ITLB TRANSLATION ACCESS:          0  HIT:          0  MISS:          0
cpu0_ITLB PREFETCH  REQUESTED:          0  ISSUED:          0  USEFUL:          0  USELESS:          0
cpu0_ITLB AVERAGE MISS LATENCY: 10.9161 cycles
cpu0_L1I TOTAL     ACCESS:     670335  HIT:     563305  MISS:     107030
cpu0_L1I LOAD      ACCESS:     670335  HIT:     563305  MISS:     107030
cpu0_L1I RFO       ACCESS:          0  HIT:          0  MISS:          0
cpu0_L1I PREFETCH  ACCESS:          0  HIT:          0  MISS:          0
cpu0_L1I WRITEBACK ACCESS:          0  HIT:          0  MISS:          0
cpu0_L1I TRANSLATION ACCESS:          0  HIT:          0  MISS:          0
cpu0_L1I PREFETCH  REQUESTED:          0  ISSUED:          0  USEFUL:          0  USELESS:          0
cpu0_L1I AVERAGE MISS LATENCY: 41.7786 cycles
cpu0_STLB TOTAL     ACCESS:     588023  HIT:     173010  MISS:     415013
cpu0_STLB LOAD      ACCESS:     578449  HIT:     164993  MISS:     413456
cpu0_STLB RFO       ACCESS:       9574  HIT:       8017  MISS:       1557
cpu0_STLB PREFETCH  ACCESS:          0  HIT:          0  MISS:          0
cpu0_STLB WRITEBACK ACCESS:          0  HIT:          0  MISS:          0
cpu0_STLB TRANSLATION ACCESS:          0  HIT:          0  MISS:          0
cpu0_STLB PREFETCH  REQUESTED:          0  ISSUED:          0  USEFUL:          0  USELESS:          0
cpu0_STLB AVERAGE MISS LATENCY: 38.6853 cycles
cpu0_L1D TOTAL     ACCESS:   17698738  HIT:   14553589  MISS:    3145149
cpu0_L1D LOAD      ACCESS:   15458356  HIT:   12331111  MISS:    3127245
cpu0_L1D RFO       ACCESS:    1870088  HIT:    1858136  MISS:      11952
cpu0_L1D PREFETCH  ACCESS:          0  HIT:          0  MISS:          0
cpu0_L1D WRITEBACK ACCESS:          0  HIT:          0  MISS:          0
cpu0_L1D TRANSLATION ACCESS:     370294  HIT:     364342  MISS:       5952
cpu0_L1D PREFETCH  REQUESTED:          0  ISSUED:          0  USEFUL:          0  USELESS:          0
cpu0_L1D AVERAGE MISS LATENCY: 152.358 cycles
cpu0_L2C TOTAL     ACCESS:    3279969  HIT:     136147  MISS:    3143822
cpu0_L2C LOAD      ACCESS:    3234265  HIT:     101445  MISS:    3132820
cpu0_L2C RFO       ACCESS:      11948  HIT:       2661  MISS:       9287
cpu0_L2C PREFETCH  ACCESS:          0  HIT:          0  MISS:          0
cpu0_L2C WRITEBACK ACCESS:      27804  HIT:      27416  MISS:        388
cpu0_L2C TRANSLATION ACCESS:       5952  HIT:       4625  MISS:       1327
cpu0_L2C PREFETCH  REQUESTED:          0  ISSUED:          0  USEFUL:          0  USELESS:          0
cpu0_L2C AVERAGE MISS LATENCY: 142.31 cycles
LLC TOTAL     ACCESS:    3163838  HIT:     730977  MISS:    2432861
LLC LOAD      ACCESS:    3132820  HIT:     707946  MISS:    2424874
LLC RFO       ACCESS:       9287  HIT:       3851  MISS:       5436
LLC PREFETCH  ACCESS:          0  HIT:          0  MISS:          0
LLC WRITEBACK ACCESS:      20404  HIT:      18652  MISS:       1752
LLC TRANSLATION ACCESS:       1327  HIT:        528  MISS:        799
LLC PREFETCH  REQUESTED:          0  ISSUED:          0  USEFUL:          0  USELESS:          0
LLC AVERAGE MISS LATENCY: 156.764 cycles
OPTgen accesses: 53652
OPTgen hits: 18043
OPTgen hit rate: 33.6297



DRAM Statistics
 CHANNEL 0
 RQ ROW_BUFFER_HIT:     611903  ROW_BUFFER_MISS:    1819200
 DBUS AVG_CONGESTED_CYCLE:    3.91666
 WQ ROW_BUFFER_HIT:       3739  ROW_BUFFER_MISS:       4748  FULL:          0


CPU 0 Branch Prediction Accuracy: 90.7444% MPKI: 27.9345 Average ROB Occupancy at Mispredict: 19.334
Branch type MPKI
BRANCH_DIRECT_JUMP: 0.00034
BRANCH_INDIRECT: 0.0087
BRANCH_CONDITIONAL: 27.8577
BRANCH_DIRECT_CALL: 0.00024
BRANCH_INDIRECT_CALL: 0.02508
BRANCH_RETURN: 0.04245

