
*** ChampSim Multicore Out-of-Order Simulator ***

Warmup Instructions: 10000000
Simulation Instructions: 100000000
Number of CPUs: 1
Off-chip DRAM Size: 4 GiB Channels: 1 Width: 64-bit Data Rate: 3200 MT/s

VirtualMemory physical capacity: 8588881920 num_ppages: 2096895
VirtualMemory page size: 4096 log2_page_size: 12

CPU 0 runs /datasets/cs240c-wi22-a00-public/data/Assignment2/xalancbmk_768B.trace.xz
CPU 0 Bimodal branch predictor
Basic BTB sets: 1024 ways: 8 indirect buffer size: 4096 RAS size: 64
Initialize Hawkeye state
Heartbeat CPU 0 instructions: 10000000 cycles: 3078431 heartbeat IPC: 3.24841 cumulative IPC: 3.24841 (Simulation time: 0 hr 0 min 42 sec) 

Warmup complete CPU 0 instructions: 10000005 cycles: 3078432 (Simulation time: 0 hr 0 min 42 sec) 

Heartbeat CPU 0 instructions: 20000000 cycles: 8029866 heartbeat IPC: 2.01962 cumulative IPC: 2.01962 (Simulation time: 0 hr 1 min 40 sec) 
Heartbeat CPU 0 instructions: 30000001 cycles: 13729764 heartbeat IPC: 1.75442 cumulative IPC: 1.8777 (Simulation time: 0 hr 2 min 39 sec) 
Heartbeat CPU 0 instructions: 40000002 cycles: 19081749 heartbeat IPC: 1.86847 cumulative IPC: 1.87461 (Simulation time: 0 hr 3 min 39 sec) 
Heartbeat CPU 0 instructions: 50000000 cycles: 25054942 heartbeat IPC: 1.67415 cumulative IPC: 1.82012 (Simulation time: 0 hr 4 min 38 sec) 
Heartbeat CPU 0 instructions: 60000004 cycles: 30851590 heartbeat IPC: 1.72514 cumulative IPC: 1.8003 (Simulation time: 0 hr 5 min 37 sec) 
Heartbeat CPU 0 instructions: 70000003 cycles: 36725405 heartbeat IPC: 1.70247 cumulative IPC: 1.78322 (Simulation time: 0 hr 6 min 31 sec) 
Heartbeat CPU 0 instructions: 80000001 cycles: 42641875 heartbeat IPC: 1.6902 cumulative IPC: 1.76931 (Simulation time: 0 hr 7 min 26 sec) 
Heartbeat CPU 0 instructions: 90000004 cycles: 48181050 heartbeat IPC: 1.80532 cumulative IPC: 1.77373 (Simulation time: 0 hr 8 min 21 sec) 
Heartbeat CPU 0 instructions: 100000003 cycles: 53451485 heartbeat IPC: 1.89738 cumulative IPC: 1.78667 (Simulation time: 0 hr 9 min 17 sec) 
Heartbeat CPU 0 instructions: 110000000 cycles: 59147005 heartbeat IPC: 1.75577 cumulative IPC: 1.78353 (Simulation time: 0 hr 10 min 11 sec) 
Finished CPU 0 instructions: 100000004 cycles: 56068576 cumulative IPC: 1.78353 (Simulation time: 0 hr 10 min 11 sec) 

ChampSim completed all CPUs

Region of Interest Statistics

CPU 0 cumulative IPC: 1.78353 instructions: 100000004 cycles: 56068576
cpu0_DTLB TOTAL     ACCESS:   16809816  HIT:   15987508  MISS:     822308
cpu0_DTLB LOAD      ACCESS:   15848003  HIT:   15031042  MISS:     816961
cpu0_DTLB RFO       ACCESS:     961813  HIT:     956466  MISS:       5347
cpu0_DTLB PREFETCH  ACCESS:          0  HIT:          0  MISS:          0
cpu0_DTLB WRITEBACK ACCESS:          0  HIT:          0  MISS:          0
cpu0_DTLB TRANSLATION ACCESS:          0  HIT:          0  MISS:          0
cpu0_DTLB PREFETCH  REQUESTED:          0  ISSUED:          0  USEFUL:          0  USELESS:          0
cpu0_DTLB AVERAGE MISS LATENCY: 11.2121 cycles
cpu0_ITLB TOTAL     ACCESS:    2635760  HIT:    2635760  MISS:          0
cpu0_ITLB LOAD      ACCESS:    2635760  HIT:    2635760  MISS:          0
cpu0_ITLB RFO       ACCESS:          0  HIT:          0  MISS:          0
cpu0_ITLB PREFETCH  ACCESS:          0  HIT:          0  MISS:          0
cpu0_ITLB WRITEBACK ACCESS:          0  HIT:          0  MISS:          0
cpu0_ITLB TRANSLATION ACCESS:          0  HIT:          0  MISS:          0
cpu0_ITLB PREFETCH  REQUESTED:          0  ISSUED:          0  USEFUL:          0  USELESS:          0
cpu0_ITLB AVERAGE MISS LATENCY: -nan cycles
cpu0_L1I TOTAL     ACCESS:     223226  HIT:     223212  MISS:         14
cpu0_L1I LOAD      ACCESS:     223226  HIT:     223212  MISS:         14
cpu0_L1I RFO       ACCESS:          0  HIT:          0  MISS:          0
cpu0_L1I PREFETCH  ACCESS:          0  HIT:          0  MISS:          0
cpu0_L1I WRITEBACK ACCESS:          0  HIT:          0  MISS:          0
cpu0_L1I TRANSLATION ACCESS:          0  HIT:          0  MISS:          0
cpu0_L1I PREFETCH  REQUESTED:          0  ISSUED:          0  USEFUL:          0  USELESS:          0
cpu0_L1I AVERAGE MISS LATENCY: 194.857 cycles
cpu0_STLB TOTAL     ACCESS:     822308  HIT:     782921  MISS:      39387
cpu0_STLB LOAD      ACCESS:     816961  HIT:     778274  MISS:      38687
cpu0_STLB RFO       ACCESS:       5347  HIT:       4647  MISS:        700
cpu0_STLB PREFETCH  ACCESS:          0  HIT:          0  MISS:          0
cpu0_STLB WRITEBACK ACCESS:          0  HIT:          0  MISS:          0
cpu0_STLB TRANSLATION ACCESS:          0  HIT:          0  MISS:          0
cpu0_STLB PREFETCH  REQUESTED:          0  ISSUED:          0  USEFUL:          0  USELESS:          0
cpu0_STLB AVERAGE MISS LATENCY: 45.6391 cycles
cpu0_L1D TOTAL     ACCESS:    8137177  HIT:    3397515  MISS:    4739662
cpu0_L1D LOAD      ACCESS:    7107217  HIT:    2407675  MISS:    4699542
cpu0_L1D RFO       ACCESS:     990952  HIT:     966996  MISS:      23956
cpu0_L1D PREFETCH  ACCESS:          0  HIT:          0  MISS:          0
cpu0_L1D WRITEBACK ACCESS:          0  HIT:          0  MISS:          0
cpu0_L1D TRANSLATION ACCESS:      39008  HIT:      22844  MISS:      16164
cpu0_L1D PREFETCH  REQUESTED:          0  ISSUED:          0  USEFUL:          0  USELESS:          0
cpu0_L1D AVERAGE MISS LATENCY: 12.1762 cycles
cpu0_L2C TOTAL     ACCESS:    4822068  HIT:    4789903  MISS:      32165
cpu0_L2C LOAD      ACCESS:    4699556  HIT:    4670365  MISS:      29191
cpu0_L2C RFO       ACCESS:      23956  HIT:      20989  MISS:       2967
cpu0_L2C PREFETCH  ACCESS:          0  HIT:          0  MISS:          0
cpu0_L2C WRITEBACK ACCESS:      82392  HIT:      82392  MISS:          0
cpu0_L2C TRANSLATION ACCESS:      16164  HIT:      16157  MISS:          7
cpu0_L2C PREFETCH  REQUESTED:          0  ISSUED:          0  USEFUL:          0  USELESS:          0
cpu0_L2C AVERAGE MISS LATENCY: 161.713 cycles
LLC TOTAL     ACCESS:      54335  HIT:      21991  MISS:      32344
LLC LOAD      ACCESS:      29191  HIT:       4607  MISS:      24584
LLC RFO       ACCESS:       2967  HIT:        230  MISS:       2737
LLC PREFETCH  ACCESS:          0  HIT:          0  MISS:          0
LLC WRITEBACK ACCESS:      22170  HIT:      17150  MISS:       5020
LLC TRANSLATION ACCESS:          7  HIT:          4  MISS:          3
LLC PREFETCH  REQUESTED:          0  ISSUED:          0  USEFUL:          0  USELESS:          0
LLC AVERAGE MISS LATENCY: 139.934 cycles
OPTgen accesses: 1586
OPTgen hits: 607
OPTgen hit rate: 38.2724



DRAM Statistics
 CHANNEL 0
 RQ ROW_BUFFER_HIT:        143  ROW_BUFFER_MISS:      27181
 DBUS AVG_CONGESTED_CYCLE:    3.87486
 WQ ROW_BUFFER_HIT:       4754  ROW_BUFFER_MISS:      14268  FULL:          0


CPU 0 Branch Prediction Accuracy: 99.3839% MPKI: 2.31335 Average ROB Occupancy at Mispredict: 41.5641
Branch type MPKI
BRANCH_DIRECT_JUMP: 4e-05
BRANCH_INDIRECT: 8e-05
BRANCH_CONDITIONAL: 2.24893
BRANCH_DIRECT_CALL: 3e-05
BRANCH_INDIRECT_CALL: 0.0001
BRANCH_RETURN: 0.06417

